@<TRIPOS>MOLECULE
BNY
   27    28     1     0     0
SMALL
bcc


@<TRIPOS>ATOM
      1 C1           2.7290    25.2540    34.5130 c3         1 BNY      -0.016100
      2 C2           3.1580    23.9020    33.9540 c3         1 BNY      -0.022300
      3 C3           4.2050    23.2170    34.7990 c3         1 BNY       0.197400
      4 O1           3.6910    22.7290    36.0390 os         1 BNY      -0.298900
      5 C4           2.3880    22.2840    36.0960 ca         1 BNY       0.125100
      6 C5           1.9390    21.7250    37.2870 ca         1 BNY      -0.115000
      7 C6           0.6020    21.3430    37.4060 ca         1 BNY      -0.081000
      8 C7          -0.2720    21.5120    36.3610 ca         1 BNY      -0.111000
      9 C8           0.1650    22.0670    35.1720 ca         1 BNY      -0.104000
     10 C9           1.4950    22.4290    35.0270 ca         1 BNY      -0.132400
     11 N1           2.0050    23.0080    33.8350 n          1 BNY      -0.029000
     12 C10          1.5500    22.7170    32.5910 c          1 BNY       0.578100
     13 O2           1.4670    23.5850    31.7430 o          1 BNY      -0.561100
     14 C11          1.2530    21.2570    32.2520 c3         1 BNY      -0.036900
     15 Cl1          2.7810    20.3620    32.1060 cl         1 BNY      -0.043900
     16 Cl2          0.3750    21.0670    30.7840 cl         1 BNY      -0.043900
     17 H1           2.7410    25.2170    35.6120 hc         1 BNY       0.019367
     18 H2           3.4240    26.0320    34.1650 hc         1 BNY       0.019367
     19 H3           1.7120    25.4890    34.1650 hc         1 BNY       0.019367
     20 H4           3.5970    24.1100    32.9670 h1         1 BNY       0.061700
     21 H5           4.6140    22.3680    34.2310 h1         1 BNY       0.026700
     22 H6           4.9770    23.9640    35.0350 h1         1 BNY       0.026700
     23 H7           2.6320    21.5850    38.1290 ha         1 BNY       0.122000
     24 H8           0.2440    20.9010    38.3480 ha         1 BNY       0.107000
     25 H9          -1.3230    21.2050    36.4700 ha         1 BNY       0.110000
     26 H10         -0.5420    22.2210    34.3430 ha         1 BNY       0.115000
     27 H11          0.6290    20.8660    33.0690 h2         1 BNY       0.067700
@<TRIPOS>BOND
     1     2     1 1   
     2     3     2 1   
     3     4     3 1   
     4     5     4 1   
     5     6     5 ar  
     6     7     6 ar  
     7     8     7 ar  
     8     9     8 ar  
     9    10     9 ar  
    10    10     5 ar  
    11    11    10 1   
    12    11     2 1   
    13    12    11 1   
    14    13    12 2   
    15    14    12 1   
    16    15    14 1   
    17    16    14 1   
    18     1    17 1   
    19     1    18 1   
    20     1    19 1   
    21     2    20 1   
    22     3    21 1   
    23     3    22 1   
    24     6    23 1   
    25     7    24 1   
    26     8    25 1   
    27     9    26 1   
    28    14    27 1   
@<TRIPOS>SUBSTRUCTURE
     1 BNY         1 TEMP              0 ****  ****    0 ROOT
