@<TRIPOS>MOLECULE
A8S
   38    38     1     0     0
SMALL
bcc


@<TRIPOS>ATOM
      1 C1          6.3007   33.6025   32.2988 c         1 A8S         0.8898
      2 C2          7.1570   33.2008   33.3045 ce        1 A8S        -0.1452
      3 C3          7.0597   32.1581   34.1731 cf        1 A8S        -0.1582
      4 C4          6.0328   31.2904   34.1309 cf        1 A8S        -0.0380
      5 C5          5.8653   30.1017   35.0163 c2        1 A8S        -0.2972
      6 C6          8.1243   31.9366   35.2224 c3        1 A8S        -0.0449
      7 C7          4.5672   29.2765   34.9470 c3        1 A8S         0.2372
      8 O1          3.6772   29.6572   33.8775 oh        1 A8S        -0.6088
      9 C8          4.8709   27.8154   34.6088 c2        1 A8S         0.0156
     10 C9          5.5339   27.1191   35.7646 ce        1 A8S        -0.2992
     11 C10         5.1557   27.3782   37.0681 c         1 A8S         0.5813
     12 O2          5.3333   26.4296   37.9997 o         1 A8S        -0.5761
     13 C11         4.5891   28.7162   37.4420 c3        1 A8S        -0.1724
     14 O3          5.2566   32.9711   31.9570 o         1 A8S        -0.8313
     15 C12         3.7589   29.3138   36.2713 c3        1 A8S        -0.0600
     16 O4          6.6144   34.6635   31.6941 o         1 A8S        -0.8313
     17 C13         5.3995   27.5835   33.1750 c3        1 A8S        -0.0729
     18 C14         2.4308   28.5359   36.1547 c3        1 A8S        -0.0871
     19 C15         3.4203   30.7218   36.7501 c3        1 A8S        -0.0871
     20 H1          8.0585   33.8205   33.4218 ha        1 A8S         0.1050
     21 H2          5.2500   31.4727   33.3805 ha        1 A8S         0.1810
     22 H3          6.6651   29.8159   35.7158 ha        1 A8S         0.1170
     23 H4          8.8216   32.7876   35.2223 hc        1 A8S         0.0227
     24 H5          7.6515   31.8500   36.2113 hc        1 A8S         0.0227
     25 H6          8.6745   31.0112   34.9965 hc        1 A8S         0.0227
     26 H7          3.9632   30.5291   33.5042 ho        1 A8S         0.4350
     27 H8          6.3338   26.3904   35.5693 ha        1 A8S         0.1380
     28 H9          3.9392   28.5984   38.3216 hc        1 A8S         0.0672
     29 H10         5.4209   29.3992   37.6678 hc        1 A8S         0.0672
     30 H11         5.9820   28.4592   32.8530 hc        1 A8S         0.0577
     31 H12         6.0413   26.6903   33.1610 hc        1 A8S         0.0577
     32 H13         4.5508   27.4363   32.4910 hc        1 A8S         0.0577
     33 H14         1.6720   29.1754   35.6794 hc        1 A8S         0.0389
     34 H15         2.5858   27.6348   35.5433 hc        1 A8S         0.0389
     35 H16         2.0880   28.2428   37.1585 hc        1 A8S         0.0389
     36 H17         4.1829   31.4258   36.3872 hc        1 A8S         0.0389
     37 H18         2.4352   31.0153   36.3582 hc        1 A8S         0.0389
     38 H19         3.3982   30.7399   37.8498 hc        1 A8S         0.0389
@<TRIPOS>BOND
     1     2     1 1   
     2     3     2 2   
     3     4     3 1   
     4     5     4 2   
     5     6     3 1   
     6     7     5 1   
     7     7     8 1   
     8     9     7 1   
     9    10     9 2   
    10    11    10 1   
    11    12    11 2   
    12    13    11 1   
    13    14     1 1   
    14    15    13 1   
    15    15     7 1   
    16    16     1 1   
    17    17     9 1   
    18    15    18 1   
    19    19    15 1   
    20     2    20 1   
    21     4    21 1   
    22     5    22 1   
    23     6    23 1   
    24     6    24 1   
    25     6    25 1   
    26     8    26 1   
    27    10    27 1   
    28    13    28 1   
    29    13    29 1   
    30    17    30 1   
    31    17    31 1   
    32    17    32 1   
    33    18    33 1   
    34    18    34 1   
    35    18    35 1   
    36    19    36 1   
    37    19    37 1   
    38    19    38 1   
@<TRIPOS>SUBSTRUCTURE
     1 A8S         1 TEMP              0 ****  ****    0 ROOT
