@<TRIPOS>MOLECULE
FLX
   24    26     1     0     0
SMALL
bcc


@<TRIPOS>ATOM
      1 N1           4.5010    20.4570    34.6860 n1         1 FLX      -0.409800
      2 C1           4.2230    21.5670    34.4360 cg         1 FLX       0.280800
      3 C2           3.8470    22.8910    34.1450 cc         1 FLX      -0.015000
      4 C3           4.6820    23.9010    33.7550 cd         1 FLX      -0.346300
      5 N2           3.9610    25.0180    33.5570 na         1 FLX       0.484900
      6 C4           2.6820    24.7470    33.8190 cd         1 FLX      -0.355300
      7 C5           2.5750    23.4290    34.1950 cc         1 FLX      -0.077000
      8 C6           1.3370    22.7340    34.5440 ca         1 FLX       0.025000
      9 C7           0.8220    22.7330    35.8420 ca         1 FLX      -0.082000
     10 C8          -0.3440    22.0200    36.1370 ca         1 FLX      -0.100000
     11 C9          -1.0050    21.2940    35.1660 ca         1 FLX      -0.069000
     12 C10         -0.4760    21.3060    33.8750 ca         1 FLX       0.051100
     13 C11          0.6540    22.0100    33.5780 ca         1 FLX       0.072100
     14 O1           0.9460    21.8710    32.2610 os         1 FLX      -0.304900
     15 C12          0.0200    20.9270    31.7110 c3         1 FLX       0.731200
     16 F1           0.6740    19.7830    31.4140 f          1 FLX      -0.175800
     17 F2          -0.5820    21.4170    30.6340 f          1 FLX      -0.175800
     18 O2          -0.9390    20.6650    32.7570 os         1 FLX      -0.311900
     19 H1           5.7710    23.8130    33.6240 h4         1 FLX       0.156000
     20 H2           4.3330    25.9290    33.2540 hn         1 FLX       0.115700
     21 H3           1.8490    25.4610    33.7460 h4         1 FLX       0.156000
     22 H4           1.3360    23.2950    36.6360 ha         1 FLX       0.116000
     23 H5          -0.7420    22.0380    37.1620 ha         1 FLX       0.111000
     24 H6          -1.9170    20.7260    35.4020 ha         1 FLX       0.123000
@<TRIPOS>BOND
     1     2     1 3   
     2     3     2 1   
     3     4     3 2   
     4     5     4 1   
     5     6     5 1   
     6     7     6 2   
     7     7     3 1   
     8     8     7 1   
     9     9     8 ar  
    10    10     9 ar  
    11    11    10 ar  
    12    12    11 ar  
    13    13    12 ar  
    14    13     8 ar  
    15    14    13 1   
    16    15    14 1   
    17    15    16 1   
    18    17    15 1   
    19    18    15 1   
    20    18    12 1   
    21     4    19 1   
    22     5    20 1   
    23     6    21 1   
    24     9    22 1   
    25    10    23 1   
    26    11    24 1   
@<TRIPOS>SUBSTRUCTURE
     1 FLX         1 TEMP              0 ****  ****    0 ROOT
