
     RDKit          3D

 24 26  0  0  0  0  0  0  0  0999 V2000
    4.5010   20.4570   34.6860 N   0  0  0  0  0  0  0  0  0  0  0  0
    4.2230   21.5670   34.4360 C   0  0  0  0  0  0  0  0  0  0  0  0
    3.8470   22.8910   34.1450 C   0  0  0  0  0  0  0  0  0  0  0  0
    4.6820   23.9010   33.7550 C   0  0  0  0  0  0  0  0  0  0  0  0
    3.9610   25.0180   33.5570 N   0  0  0  0  0  0  0  0  0  0  0  0
    2.6820   24.7470   33.8190 C   0  0  0  0  0  0  0  0  0  0  0  0
    2.5750   23.4290   34.1950 C   0  0  0  0  0  0  0  0  0  0  0  0
    1.3370   22.7340   34.5440 C   0  0  0  0  0  0  0  0  0  0  0  0
    0.8220   22.7330   35.8420 C   0  0  0  0  0  0  0  0  0  0  0  0
   -0.3440   22.0200   36.1370 C   0  0  0  0  0  0  0  0  0  0  0  0
   -1.0050   21.2940   35.1660 C   0  0  0  0  0  0  0  0  0  0  0  0
   -0.4760   21.3060   33.8750 C   0  0  0  0  0  0  0  0  0  0  0  0
    0.6540   22.0100   33.5780 C   0  0  0  0  0  0  0  0  0  0  0  0
    0.9460   21.8710   32.2610 O   0  0  0  0  0  0  0  0  0  0  0  0
    0.0200   20.9270   31.7110 C   0  0  0  0  0  0  0  0  0  0  0  0
    0.6740   19.7830   31.4140 F   0  0  0  0  0  0  0  0  0  0  0  0
   -0.5820   21.4170   30.6340 F   0  0  0  0  0  0  0  0  0  0  0  0
   -0.9390   20.6650   32.7570 O   0  0  0  0  0  0  0  0  0  0  0  0
    5.7707   23.8134   33.6241 H   0  0  0  0  0  0  0  0  0  0  0  0
    4.3335   25.9292   33.2541 H   0  0  0  0  0  0  0  0  0  0  0  0
    1.8487   25.4613   33.7462 H   0  0  0  0  0  0  0  0  0  0  0  0
    1.3357   23.2954   36.6356 H   0  0  0  0  0  0  0  0  0  0  0  0
   -0.7424   22.0377   37.1622 H   0  0  0  0  0  0  0  0  0  0  0  0
   -1.9169   20.7260   35.4021 H   0  0  0  0  0  0  0  0  0  0  0  0
  2  1  3  0
  3  2  1  0
  4  3  2  0
  5  4  1  0
  6  5  1  0
  7  6  2  0
  7  3  1  0
  8  7  1  0
  9  8  2  0
 10  9  1  0
 11 10  2  0
 12 11  1  0
 13 12  2  0
 13  8  1  0
 14 13  1  0
 15 14  1  0
 15 16  1  0
 17 15  1  0
 18 15  1  0
 18 12  1  0
  4 19  1  0
  5 20  1  0
  6 21  1  0
  9 22  1  0
 10 23  1  0
 11 24  1  0
M  END
