
     RDKit          3D

 56 57  0  0  0  0  0  0  0  0999 V2000
    3.2240   20.7290   39.5310 C   0  0  0  0  0  0  0  0  0  0  0  0
    3.4770   21.7710   39.0300 C   0  0  0  0  0  0  0  0  0  0  0  0
    3.7980   23.0220   38.3520 C   0  0  0  0  0  0  0  0  0  0  0  0
    3.2900   23.1580   37.0270 O   0  0  0  0  0  0  0  0  0  0  0  0
    3.0770   21.9550   36.3850 C   0  0  2  0  0  0  0  0  0  0  0  0
    3.9940   21.8180   35.2000 C   0  0  0  0  0  0  0  0  0  0  0  0
    4.3330   20.7170   34.8180 O   0  0  0  0  0  0  0  0  0  0  0  0
    4.3630   22.9750   34.5570 N   0  0  0  0  0  0  0  0  0  0  0  0
    5.1870   22.9620   33.3500 C   0  0  0  0  0  0  0  0  0  0  0  0
    4.5810   23.7310   32.1740 C   0  0  0  0  0  0  0  0  0  0  0  0
    3.1260   23.4290   31.8840 C   0  0  0  0  0  0  0  0  0  0  0  0
    2.1810   24.4590   31.9630 C   0  0  0  0  0  0  0  0  0  0  0  0
    0.8350   24.2200   31.7060 C   0  0  0  0  0  0  0  0  0  0  0  0
    0.3810   22.9620   31.3540 C   0  0  0  0  0  0  0  0  0  0  0  0
   -0.9490   22.6510   31.0920 O   0  0  0  0  0  0  0  0  0  0  0  0
   -1.9420   23.6250   31.0880 C   0  0  0  0  0  0  0  0  0  0  0  0
   -3.3030   23.0760   30.7960 C   0  0  0  0  0  0  0  0  0  0  0  0
   -4.3820   23.8920   30.6800 C   0  0  0  0  0  0  0  0  0  0  0  0
   -3.4550   21.5990   30.6280 C   0  0  0  0  0  0  0  0  0  0  0  0
    1.2860   21.9300   31.2630 C   0  0  0  0  0  0  0  0  0  0  0  0
    0.7610   20.6950   30.9300 O   0  0  0  0  0  0  0  0  0  0  0  0
    1.6260   19.5860   30.8850 C   0  0  0  0  0  0  0  0  0  0  0  0
    2.6540   22.1450   31.5280 C   0  0  0  0  0  0  0  0  0  0  0  0
    1.6130   21.8080   36.0150 C   0  0  0  0  0  0  0  0  0  0  0  0
    0.6400   21.7540   37.0220 C   0  0  0  0  0  0  0  0  0  0  0  0
   -0.7100   21.6190   36.7350 C   0  0  0  0  0  0  0  0  0  0  0  0
   -1.1120   21.5380   35.4120 C   0  0  0  0  0  0  0  0  0  0  0  0
   -2.8320   21.3640   35.0300 Cl  0  0  0  0  0  0  0  0  0  0  0  0
   -0.1870   21.5830   34.4050 C   0  0  0  0  0  0  0  0  0  0  0  0
    1.1650   21.7180   34.7200 C   0  0  0  0  0  0  0  0  0  0  0  0
    2.9889   19.7606   39.9966 H   0  0  0  0  0  0  0  0  0  0  0  0
    3.3914   23.8469   38.9556 H   0  0  0  0  0  0  0  0  0  0  0  0
    4.8936   23.0363   38.2547 H   0  0  0  0  0  0  0  0  0  0  0  0
    3.3201   21.1288   37.0693 H   0  0  0  0  0  0  0  0  0  0  0  0
    4.0492   23.8793   34.9374 H   0  0  0  0  0  0  0  0  0  0  0  0
    6.1615   23.4114   33.5917 H   0  0  0  0  0  0  0  0  0  0  0  0
    5.2714   21.9118   33.0337 H   0  0  0  0  0  0  0  0  0  0  0  0
    4.6684   24.8061   32.3898 H   0  0  0  0  0  0  0  0  0  0  0  0
    5.1411   23.4134   31.2821 H   0  0  0  0  0  0  0  0  0  0  0  0
    2.5083   25.4739   32.2327 H   0  0  0  0  0  0  0  0  0  0  0  0
    0.1165   25.0492   31.7844 H   0  0  0  0  0  0  0  0  0  0  0  0
   -1.9637   24.1066   32.0767 H   0  0  0  0  0  0  0  0  0  0  0  0
   -1.6978   24.3384   30.2871 H   0  0  0  0  0  0  0  0  0  0  0  0
   -4.7440   24.1658   31.6820 H   0  0  0  0  0  0  0  0  0  0  0  0
   -4.0963   24.8020   30.1320 H   0  0  0  0  0  0  0  0  0  0  0  0
   -5.1798   23.3693   30.1320 H   0  0  0  0  0  0  0  0  0  0  0  0
   -4.4443   21.1689   30.4128 H   0  0  0  0  0  0  0  0  0  0  0  0
   -2.5776   20.9419   30.7195 H   0  0  0  0  0  0  0  0  0  0  0  0
    1.8718   19.2709   31.9098 H   0  0  0  0  0  0  0  0  0  0  0  0
    1.1330   18.7577   30.3550 H   0  0  0  0  0  0  0  0  0  0  0  0
    2.5494   19.8625   30.3550 H   0  0  0  0  0  0  0  0  0  0  0  0
    3.3610   21.3053   31.4570 H   0  0  0  0  0  0  0  0  0  0  0  0
    0.9570   21.8208   38.0732 H   0  0  0  0  0  0  0  0  0  0  0  0
   -1.4512   21.5768   37.5467 H   0  0  0  0  0  0  0  0  0  0  0  0
   -0.5071   21.5132   33.3549 H   0  0  0  0  0  0  0  0  0  0  0  0
    1.8990   21.7537   33.9015 H   0  0  0  0  0  0  0  0  0  0  0  0
  2  1  3  0
  3  2  1  0
  4  3  1  0
  5  4  1  0
  6  5  1  0
  7  6  2  0
  8  6  1  0
  9  8  1  0
 10  9  1  0
 11 10  1  0
 12 11  2  0
 13 12  1  0
 14 13  2  0
 15 14  1  0
 16 15  1  0
 17 16  1  0
 18 17  1  0
 19 17  2  0
 20 14  1  0
 21 20  1  0
 22 21  1  0
 23 20  2  0
 23 11  1  0
 24  5  1  0
 25 24  2  0
 26 25  1  0
 27 26  2  0
 28 27  1  0
 29 27  1  0
 30 29  2  0
 30 24  1  0
  1 31  1  0
  3 32  1  0
  3 33  1  0
  5 34  1  1
  8 35  1  0
  9 36  1  0
  9 37  1  0
 10 38  1  0
 10 39  1  0
 12 40  1  0
 13 41  1  0
 16 42  1  0
 16 43  1  0
 18 44  1  0
 18 45  1  0
 18 46  1  0
 19 47  1  0
 19 48  1  0
 22 49  1  0
 22 50  1  0
 22 51  1  0
 23 52  1  0
 25 53  1  0
 26 54  1  0
 29 55  1  0
 30 56  1  0
M  END
