@<TRIPOS>MOLECULE
MDY
   56    57     1     0     0
SMALL
bcc


@<TRIPOS>ATOM
      1 C1           3.2240    20.7290    39.5310 c1         1 MDY      -0.072500
      2 C2           3.4770    21.7710    39.0300 c1         1 MDY      -0.223100
      3 C3           3.7980    23.0220    38.3520 c3         1 MDY       0.330500
      4 O1           3.2900    23.1580    37.0270 os         1 MDY      -0.397600
      5 C4           3.0770    21.9550    36.3850 c3         1 MDY       0.139400
      6 C5           3.9940    21.8180    35.2000 c          1 MDY       0.582100
      7 O2           4.3330    20.7170    34.8180 o          1 MDY      -0.637100
      8 N1           4.3630    22.9750    34.5570 n          1 MDY      -0.206900
      9 C6           5.1870    22.9620    33.3500 c3         1 MDY       0.033000
     10 C7           4.5810    23.7310    32.1740 c3         1 MDY       0.023900
     11 C8           3.1260    23.4290    31.8840 ca         1 MDY      -0.090300
     12 C9           2.1810    24.4590    31.9630 ca         1 MDY      -0.103000
     13 C10          0.8350    24.2200    31.7060 ca         1 MDY      -0.151000
     14 C11          0.3810    22.9620    31.3540 ca         1 MDY       0.113100
     15 O3          -0.9490    22.6510    31.0920 os         1 MDY      -0.300900
     16 C12         -1.9420    23.6250    31.0880 c3         1 MDY       0.266600
     17 C13         -3.3030    23.0760    30.7960 c2         1 MDY      -0.182400
     18 C14         -4.3820    23.8920    30.6800 c3         1 MDY       0.054100
     19 C15         -3.4550    21.5990    30.6280 c2         1 MDY      -0.144000
     20 C16          1.2860    21.9300    31.2630 ca         1 MDY       0.112100
     21 O4           0.7610    20.6950    30.9300 os         1 MDY      -0.293900
     22 C17          1.6260    19.5860    30.8850 c3         1 MDY       0.231700
     23 C18          2.6540    22.1450    31.5280 ca         1 MDY      -0.157000
     24 C19          1.6130    21.8080    36.0150 ca         1 MDY      -0.096300
     25 C20          0.6400    21.7540    37.0220 ca         1 MDY      -0.088000
     26 C21         -0.7100    21.6190    36.7350 ca         1 MDY      -0.104500
     27 C22         -1.1120    21.5380    35.4120 ca         1 MDY      -0.019600
     28 Cl1         -2.8320    21.3640    35.0300 cl         1 MDY      -0.046400
     29 C23         -0.1870    21.5830    34.4050 ca         1 MDY      -0.104500
     30 C24          1.1650    21.7180    34.7200 ca         1 MDY      -0.088000
     31 H1           2.9890    19.7610    39.9970 ha         1 MDY       0.147500
     32 H2           3.3910    23.8470    38.9560 h1         1 MDY       0.019200
     33 H3           4.8940    23.0360    38.2550 h1         1 MDY       0.019200
     34 H4           3.3200    21.1290    37.0690 h1         1 MDY       0.062700
     35 H5           4.0490    23.8790    34.9370 hn         1 MDY       0.193500
     36 H6           6.1620    23.4110    33.5920 h1         1 MDY       0.032700
     37 H7           5.2710    21.9120    33.0340 h1         1 MDY       0.032700
     38 H8           4.6680    24.8060    32.3900 hc         1 MDY       0.025200
     39 H9           5.1410    23.4130    31.2820 hc         1 MDY       0.025200
     40 H10          2.5080    25.4740    32.2330 ha         1 MDY       0.107000
     41 H11          0.1170    25.0490    31.7840 ha         1 MDY       0.115000
     42 H12         -1.9640    24.1070    32.0770 h1         1 MDY      -0.000300
     43 H13         -1.6980    24.3380    30.2870 h1         1 MDY      -0.000300
     44 H14         -4.7440    24.1660    31.6820 hc         1 MDY       0.014033
     45 H15         -4.0960    24.8020    30.1320 hc         1 MDY       0.014033
     46 H16         -5.1800    23.3690    30.1320 hc         1 MDY       0.014033
     47 H17         -4.4440    21.1690    30.4130 ha         1 MDY       0.093500
     48 H18         -2.5780    20.9420    30.7200 ha         1 MDY       0.093500
     49 H19          1.8720    19.2710    31.9100 h1         1 MDY      -0.000633
     50 H20          1.1330    18.7580    30.3550 h1         1 MDY      -0.000633
     51 H21          2.5490    19.8630    30.3550 h1         1 MDY      -0.000633
     52 H22          3.3610    21.3050    31.4570 ha         1 MDY       0.129000
     53 H23          0.9570    21.8210    38.0730 ha         1 MDY       0.115000
     54 H24         -1.4510    21.5770    37.5470 ha         1 MDY       0.128500
     55 H25         -0.5070    21.5130    33.3550 ha         1 MDY       0.128500
     56 H26          1.8990    21.7540    33.9010 ha         1 MDY       0.115000
@<TRIPOS>BOND
     1     2     1 3   
     2     3     2 1   
     3     4     3 1   
     4     5     4 1   
     5     6     5 1   
     6     7     6 2   
     7     8     6 1   
     8     9     8 1   
     9    10     9 1   
    10    11    10 1   
    11    12    11 ar  
    12    13    12 ar  
    13    14    13 ar  
    14    15    14 1   
    15    16    15 1   
    16    17    16 1   
    17    18    17 1   
    18    19    17 2   
    19    20    14 ar  
    20    21    20 1   
    21    22    21 1   
    22    23    20 ar  
    23    23    11 ar  
    24    24     5 1   
    25    25    24 ar  
    26    26    25 ar  
    27    27    26 ar  
    28    28    27 1   
    29    29    27 ar  
    30    30    29 ar  
    31    30    24 ar  
    32     1    31 1   
    33     3    32 1   
    34     3    33 1   
    35     5    34 1   
    36     8    35 1   
    37     9    36 1   
    38     9    37 1   
    39    10    38 1   
    40    10    39 1   
    41    12    40 1   
    42    13    41 1   
    43    16    42 1   
    44    16    43 1   
    45    18    44 1   
    46    18    45 1   
    47    18    46 1   
    48    19    47 1   
    49    19    48 1   
    50    22    49 1   
    51    22    50 1   
    52    22    51 1   
    53    23    52 1   
    54    25    53 1   
    55    26    54 1   
    56    29    55 1   
    57    30    56 1   
@<TRIPOS>SUBSTRUCTURE
     1 MDY         1 TEMP              0 ****  ****    0 ROOT
