@<TRIPOS>MOLECULE
IMP
   34    36     1     0     0
SMALL
bcc


@<TRIPOS>ATOM
      1 C1           1.0380    21.9190    33.5880 ca         1 IMP       0.116100
      2 C2           0.0480    21.7530    34.5680 ca         1 IMP       0.056100
      3 O1          -1.1910    21.1990    34.4030 os         1 IMP      -0.168200
      4 C3          -1.8230    21.2360    35.6020 cc         1 IMP      -0.010900
      5 C4          -1.0150    21.8080    36.5540 cd         1 IMP      -0.189200
      6 C5           0.1990    22.1480    35.8980 ca         1 IMP      -0.109800
      7 C6           1.4060    22.7500    36.3030 ca         1 IMP      -0.049000
      8 C7           2.4220    22.9360    35.3570 ca         1 IMP      -0.134800
      9 C8           3.6870    23.5540    35.7290 cc         1 IMP      -0.032200
     10 C9           4.6400    23.7230    34.8080 cd         1 IMP      -0.259200
     11 C10          4.4680    23.3050    33.4070 c          1 IMP       0.740800
     12 O2           5.3640    23.4780    32.5900 o          1 IMP      -0.559500
     13 O3           3.2570    22.7170    33.0790 os         1 IMP      -0.319200
     14 C11          2.2250    22.5250    34.0360 ca         1 IMP       0.149100
     15 O4           0.9860    21.5630    32.2520 os         1 IMP      -0.300900
     16 C12          0.0120    22.2260    31.4460 c3         1 IMP       0.176600
     17 C13          0.6760    25.2640    31.9680 c3         1 IMP      -0.059400
     18 C14          1.0420    24.4720    30.7430 c2         1 IMP      -0.082400
     19 C15          1.7830    25.2610    29.6950 c3         1 IMP      -0.059400
     20 C16          0.7580    23.1690    30.5450 c2         1 IMP      -0.207200
     21 H1          -2.8230    20.8240    35.6150 h4         1 IMP       0.199000
     22 H2          -1.2680    21.9620    37.5930 ha         1 IMP       0.167000
     23 H3           1.5360    23.0610    37.3360 ha         1 IMP       0.147000
     24 H4           3.8410    23.8710    36.7540 ha         1 IMP       0.145000
     25 H5           5.5930    24.1780    35.0480 ha         1 IMP       0.162000
     26 H6          -0.7530    22.7390    32.0390 h1         1 IMP       0.053700
     27 H7          -0.5020    21.4710    30.8420 h1         1 IMP       0.053700
     28 H8           0.1130    24.6840    32.7030 hc         1 IMP       0.041533
     29 H9           1.5820    25.6320    32.4620 hc         1 IMP       0.041533
     30 H10          0.0600    26.1250    31.6900 hc         1 IMP       0.041533
     31 H11          2.7200    25.6510    30.1080 hc         1 IMP       0.041533
     32 H12          2.0330    24.6560    28.8170 hc         1 IMP       0.041533
     33 H13          1.1740    26.1050    29.3550 hc         1 IMP       0.041533
     34 H14          1.1090    22.6970    29.6280 ha         1 IMP       0.127000
@<TRIPOS>BOND
     1    17    18 1   
     2    18    19 1   
     3    18    20 2   
     4    20    16 1   
     5    16    15 1   
     6    15     1 1   
     7     1     2 ar  
     8     2     3 1   
     9     3     4 1   
    10     4     5 2   
    11     5     6 1   
    12     6     7 ar  
    13     7     8 ar  
    14     8     9 1   
    15     9    10 2   
    16    10    11 1   
    17    11    12 2   
    18    11    13 1   
    19    13    14 1   
    20    14     1 ar  
    21     6     2 ar  
    22    14     8 ar  
    23     4    21 1   
    24     5    22 1   
    25     7    23 1   
    26     9    24 1   
    27    10    25 1   
    28    16    26 1   
    29    16    27 1   
    30    17    28 1   
    31    17    29 1   
    32    17    30 1   
    33    19    31 1   
    34    19    32 1   
    35    19    33 1   
    36    20    34 1   
@<TRIPOS>SUBSTRUCTURE
     1 IMP         1 TEMP              0 ****  ****    0 ROOT
