
     RDKit          3D

 44 47  0  0  0  0  0  0  0  0999 V2000
    1.4928   19.8517   31.1944 C   0  0  0  0  0  0  0  0  0  0  0  0
    1.6445   21.3893   31.0691 C   0  0  2  0  0  0  0  0  0  0  0  0
    3.0635   21.8001   31.4878 C   0  0  0  0  0  0  0  0  0  0  0  0
    3.2973   21.6097   32.9988 C   0  0  0  0  0  0  0  0  0  0  0  0
    2.2166   22.2888   33.8810 C   0  0  2  0  0  0  0  0  0  0  0  0
    2.3868   22.0813   35.3850 C   0  0  0  0  0  0  0  0  0  0  0  0
    3.6643   21.9774   35.9661 C   0  0  0  0  0  0  0  0  0  0  0  0
    3.8268   21.8289   37.3463 C   0  0  0  0  0  0  0  0  0  0  0  0
    2.7084   21.7966   38.1649 C   0  0  0  0  0  0  0  0  0  0  0  0
    2.8174   21.6498   39.5157 O   0  0  0  0  0  0  0  0  0  0  0  0
    1.4363   21.9199   37.6251 C   0  0  0  0  0  0  0  0  0  0  0  0
    1.2620   22.0788   36.2392 C   0  0  0  0  0  0  0  0  0  0  0  0
   -0.1502   22.1891   35.7172 C   0  0  0  0  0  0  0  0  0  0  0  0
   -0.2410   22.6503   34.2656 C   0  0  0  0  0  0  0  0  0  0  0  0
    0.7825   21.8947   33.4155 C   0  0  1  0  0  0  0  0  0  0  0  0
    0.6473   22.2009   31.9228 C   0  0  2  0  0  0  0  0  0  0  0  0
   -0.6934   21.9555   31.2384 C   0  0  0  0  0  0  0  0  0  0  0  0
   -0.3443   21.8483   29.7408 C   0  0  0  0  0  0  0  0  0  0  0  0
    1.1955   21.8033   29.6519 C   0  0  1  0  0  0  0  0  0  0  0  0
    1.6782   23.1025   29.3224 O   0  0  0  0  0  0  0  0  0  0  0  0
    3.7591   21.5795   39.7414 H   0  0  0  0  0  0  0  0  0  0  0  0
    1.3417   23.3225   28.4368 H   0  0  0  0  0  0  0  0  0  0  0  0
    1.6945   19.4844   32.2038 H   0  0  0  0  0  0  0  0  0  0  0  0
    0.4916   19.5024   30.9236 H   0  0  0  0  0  0  0  0  0  0  0  0
    2.1986   19.3481   30.5231 H   0  0  0  0  0  0  0  0  0  0  0  0
    3.8107   21.2277   30.9251 H   0  0  0  0  0  0  0  0  0  0  0  0
    3.2431   22.8564   31.2518 H   0  0  0  0  0  0  0  0  0  0  0  0
    3.3567   20.5415   33.2389 H   0  0  0  0  0  0  0  0  0  0  0  0
    4.2860   22.0263   33.2238 H   0  0  0  0  0  0  0  0  0  0  0  0
    2.3297   23.3735   33.7291 H   0  0  0  0  0  0  0  0  0  0  0  0
    4.5615   22.0185   35.3549 H   0  0  0  0  0  0  0  0  0  0  0  0
    4.8283   21.7460   37.7556 H   0  0  0  0  0  0  0  0  0  0  0  0
    0.5750   21.8949   38.2883 H   0  0  0  0  0  0  0  0  0  0  0  0
   -0.6197   21.2011   35.8079 H   0  0  0  0  0  0  0  0  0  0  0  0
   -0.7239   22.8844   36.3420 H   0  0  0  0  0  0  0  0  0  0  0  0
   -1.2614   22.4802   33.9048 H   0  0  0  0  0  0  0  0  0  0  0  0
   -0.0568   23.7307   34.2043 H   0  0  0  0  0  0  0  0  0  0  0  0
    0.6230   20.8217   33.5842 H   0  0  0  0  0  0  0  0  0  0  0  0
    0.8634   23.2745   31.7970 H   0  0  0  0  0  0  0  0  0  0  0  0
   -1.1624   21.0295   31.5896 H   0  0  0  0  0  0  0  0  0  0  0  0
   -1.4000   22.7717   31.4211 H   0  0  0  0  0  0  0  0  0  0  0  0
   -0.7820   20.9291   29.3357 H   0  0  0  0  0  0  0  0  0  0  0  0
   -0.7627   22.6943   29.1850 H   0  0  0  0  0  0  0  0  0  0  0  0
    1.5422   21.1123   28.8765 H   0  0  0  0  0  0  0  0  0  0  0  0
  2  1  1  6
  2  3  1  0
  3  4  1  0
  4  5  1  0
  5  6  1  0
  6  7  2  0
  7  8  1  0
  8  9  2  0
  9 10  1  0
  9 11  1  0
 11 12  2  0
 12 13  1  0
 13 14  1  0
 14 15  1  0
 15 16  1  0
 16 17  1  0
 17 18  1  0
 18 19  1  0
 19 20  1  0
 16  2  1  0
 19  2  1  0
 15  5  1  0
 12  6  1  0
 10 21  1  0
 20 22  1  0
  1 23  1  0
  1 24  1  0
  1 25  1  0
  3 26  1  0
  3 27  1  0
  4 28  1  0
  4 29  1  0
  5 30  1  1
  7 31  1  0
  8 32  1  0
 11 33  1  0
 13 34  1  0
 13 35  1  0
 14 36  1  0
 14 37  1  0
 15 38  1  6
 16 39  1  1
 17 40  1  0
 17 41  1  0
 18 42  1  0
 18 43  1  0
 19 44  1  6
M  END
>  <minimizedAffinity>  (1) 
-8.53128

$$$$
