
     RDKit          3D

 44 47  0  0  0  0  0  0  0  0999 V2000
   -2.8047   -0.7620   -0.1440 C   0  0  0  0  0  0  0  0  0  0  0  0
   -2.1676    0.6149   -0.4623 C   0  0  2  0  0  0  0  0  0  0  0  0
   -1.3994    0.5298   -1.7890 C   0  0  0  0  0  0  0  0  0  0  0  0
   -0.1400   -0.3501   -1.6714 C   0  0  0  0  0  0  0  0  0  0  0  0
    0.7864    0.0524   -0.4936 C   0  0  2  0  0  0  0  0  0  0  0  0
    2.0222   -0.8277   -0.3141 C   0  0  0  0  0  0  0  0  0  0  0  0
    2.6684   -1.4105   -1.4201 C   0  0  0  0  0  0  0  0  0  0  0  0
    3.8231   -2.1826   -1.2653 C   0  0  0  0  0  0  0  0  0  0  0  0
    4.3538   -2.3691    0.0017 C   0  0  0  0  0  0  0  0  0  0  0  0
    5.4758   -3.1169    0.2019 O   0  0  0  0  0  0  0  0  0  0  0  0
    3.7534   -1.7886    1.1096 C   0  0  0  0  0  0  0  0  0  0  0  0
    2.5969   -1.0027    0.9642 C   0  0  0  0  0  0  0  0  0  0  0  0
    1.9851   -0.4158    2.2132 C   0  0  0  0  0  0  0  0  0  0  0  0
    0.9261    0.6491    1.9442 C   0  0  0  0  0  0  0  0  0  0  0  0
   -0.0169    0.1757    0.8361 C   0  0  1  0  0  0  0  0  0  0  0  0
   -1.1912    1.1310    0.6158 C   0  0  2  0  0  0  0  0  0  0  0  0
   -2.1010    1.4647    1.7935 C   0  0  0  0  0  0  0  0  0  0  0  0
   -3.4022    1.9708    1.1401 C   0  0  0  0  0  0  0  0  0  0  0  0
   -3.2720    1.6888   -0.3714 C   0  0  1  0  0  0  0  0  0  0  0  0
   -2.8756    2.8864   -1.0332 O   0  0  0  0  0  0  0  0  0  0  0  0
   -2.0697   -1.5688   -0.0872 H   0  0  0  0  0  0  0  0  0  0  0  0
   -3.5208   -1.0354   -0.9281 H   0  0  0  0  0  0  0  0  0  0  0  0
   -3.3533   -0.7651    0.8030 H   0  0  0  0  0  0  0  0  0  0  0  0
   -1.0809    1.5284   -2.1133 H   0  0  0  0  0  0  0  0  0  0  0  0
   -2.0472    0.1404   -2.5835 H   0  0  0  0  0  0  0  0  0  0  0  0
    0.3985   -0.2653   -2.6225 H   0  0  0  0  0  0  0  0  0  0  0  0
   -0.4251   -1.4047   -1.5774 H   0  0  0  0  0  0  0  0  0  0  0  0
    1.1815    1.0507   -0.7378 H   0  0  0  0  0  0  0  0  0  0  0  0
    2.2894   -1.2678   -2.4281 H   0  0  0  0  0  0  0  0  0  0  0  0
    4.2888   -2.6203   -2.1421 H   0  0  0  0  0  0  0  0  0  0  0  0
    5.7788   -3.4512   -0.6578 H   0  0  0  0  0  0  0  0  0  0  0  0
    4.1905   -1.9469    2.0925 H   0  0  0  0  0  0  0  0  0  0  0  0
    1.5294   -1.2369    2.7814 H   0  0  0  0  0  0  0  0  0  0  0  0
    2.7705    0.0221    2.8410 H   0  0  0  0  0  0  0  0  0  0  0  0
    1.4085    1.5905    1.6511 H   0  0  0  0  0  0  0  0  0  0  0  0
    0.3807    0.8466    2.8737 H   0  0  0  0  0  0  0  0  0  0  0  0
   -0.3988   -0.8113    1.1278 H   0  0  0  0  0  0  0  0  0  0  0  0
   -0.7633    2.0892    0.2782 H   0  0  0  0  0  0  0  0  0  0  0  0
   -2.3009    0.5824    2.4118 H   0  0  0  0  0  0  0  0  0  0  0  0
   -1.6629    2.2292    2.4434 H   0  0  0  0  0  0  0  0  0  0  0  0
   -4.2521    1.4241    1.5636 H   0  0  0  0  0  0  0  0  0  0  0  0
   -3.5496    3.0361    1.3474 H   0  0  0  0  0  0  0  0  0  0  0  0
   -4.2201    1.3629   -0.8116 H   0  0  0  0  0  0  0  0  0  0  0  0
   -3.5923    3.5338   -0.9184 H   0  0  0  0  0  0  0  0  0  0  0  0
  2  1  1  1
  2  3  1  0
  3  4  1  0
  4  5  1  0
  5  6  1  0
  6  7  2  0
  7  8  1  0
  8  9  2  0
  9 10  1  0
  9 11  1  0
 11 12  2  0
 12 13  1  0
 13 14  1  0
 14 15  1  0
 15 16  1  0
 16 17  1  0
 17 18  1  0
 18 19  1  0
 19 20  1  0
 16  2  1  0
 19  2  1  0
 15  5  1  0
 12  6  1  0
  1 21  1  0
  1 22  1  0
  1 23  1  0
  3 24  1  0
  3 25  1  0
  4 26  1  0
  4 27  1  0
  5 28  1  6
  7 29  1  0
  8 30  1  0
 10 31  1  0
 11 32  1  0
 13 33  1  0
 13 34  1  0
 14 35  1  0
 14 36  1  0
 15 37  1  1
 16 38  1  6
 17 39  1  0
 17 40  1  0
 18 41  1  0
 18 42  1  0
 19 43  1  6
 20 44  1  0
M  END
$$$$
