
     RDKit          3D

 44 47  0  0  0  0  0  0  0  0999 V2000
    4.8730   22.9398   31.9394 C   0  0  0  0  0  0  0  0  0  0  0  0
    4.2173   21.9789   32.9640 C   0  0  2  0  0  0  0  0  0  0  0  0
    3.6858   20.7368   32.2344 C   0  0  0  0  0  0  0  0  0  0  0  0
    2.4785   21.0676   31.3360 C   0  0  0  0  0  0  0  0  0  0  0  0
    1.3477   21.8287   32.0772 C   0  0  2  0  0  0  0  0  0  0  0  0
    0.1534   22.2177   31.2076 C   0  0  0  0  0  0  0  0  0  0  0  0
   -0.2652   21.4037   30.1386 C   0  0  0  0  0  0  0  0  0  0  0  0
   -1.3820   21.7338   29.3658 C   0  0  0  0  0  0  0  0  0  0  0  0
   -2.1033   22.8794   29.6643 C   0  0  0  0  0  0  0  0  0  0  0  0
   -3.1968   23.2435   28.9365 O   0  0  0  0  0  0  0  0  0  0  0  0
   -1.7300   23.6904   30.7264 C   0  0  0  0  0  0  0  0  0  0  0  0
   -0.6138   23.3629   31.5158 C   0  0  0  0  0  0  0  0  0  0  0  0
   -0.2530   24.2984   32.6442 C   0  0  0  0  0  0  0  0  0  0  0  0
    0.7712   23.7274   33.6204 C   0  0  0  0  0  0  0  0  0  0  0  0
    1.9110   23.0613   32.8468 C   0  0  1  0  0  0  0  0  0  0  0  0
    3.0471   22.5956   33.7592 C   0  0  2  0  0  0  0  0  0  0  0  0
    3.7280   23.6144   34.6672 C   0  0  0  0  0  0  0  0  0  0  0  0
    5.0873   22.9731   35.0097 C   0  0  0  0  0  0  0  0  0  0  0  0
    5.2261   21.7308   34.1050 C   0  0  1  0  0  0  0  0  0  0  0  0
    4.8748   20.5711   34.8541 O   0  0  0  0  0  0  0  0  0  0  0  0
   -3.3331   22.5840   28.2371 H   0  0  0  0  0  0  0  0  0  0  0  0
    5.5231   20.4814   35.5735 H   0  0  0  0  0  0  0  0  0  0  0  0
    5.2564   23.8541   32.4028 H   0  0  0  0  0  0  0  0  0  0  0  0
    5.7239   22.4478   31.4533 H   0  0  0  0  0  0  0  0  0  0  0  0
    4.1876   23.2496   31.1464 H   0  0  0  0  0  0  0  0  0  0  0  0
    4.4781   20.2775   31.6312 H   0  0  0  0  0  0  0  0  0  0  0  0
    3.3670   19.9743   32.9561 H   0  0  0  0  0  0  0  0  0  0  0  0
    2.8058   21.6448   30.4631 H   0  0  0  0  0  0  0  0  0  0  0  0
    2.1009   20.1154   30.9455 H   0  0  0  0  0  0  0  0  0  0  0  0
    0.9403   21.1284   32.8229 H   0  0  0  0  0  0  0  0  0  0  0  0
    0.2664   20.4893   29.8907 H   0  0  0  0  0  0  0  0  0  0  0  0
   -1.6694   21.0837   28.5460 H   0  0  0  0  0  0  0  0  0  0  0  0
   -2.3138   24.5819   30.9425 H   0  0  0  0  0  0  0  0  0  0  0  0
    0.1500   25.2185   32.2017 H   0  0  0  0  0  0  0  0  0  0  0  0
   -1.1560   24.5709   33.2038 H   0  0  0  0  0  0  0  0  0  0  0  0
    1.1425   24.5386   34.2564 H   0  0  0  0  0  0  0  0  0  0  0  0
    0.2893   22.9971   34.2833 H   0  0  0  0  0  0  0  0  0  0  0  0
    2.2968   23.7976   32.1297 H   0  0  0  0  0  0  0  0  0  0  0  0
    2.6252   21.8253   34.4254 H   0  0  0  0  0  0  0  0  0  0  0  0
    3.8745   24.5740   34.1587 H   0  0  0  0  0  0  0  0  0  0  0  0
    3.1440   23.8080   35.5729 H   0  0  0  0  0  0  0  0  0  0  0  0
    5.8861   23.6938   34.8020 H   0  0  0  0  0  0  0  0  0  0  0  0
    5.1353   22.7138   36.0727 H   0  0  0  0  0  0  0  0  0  0  0  0
    6.2515   21.5972   33.7452 H   0  0  0  0  0  0  0  0  0  0  0  0
  2  1  1  6
  2  3  1  0
  3  4  1  0
  4  5  1  0
  5  6  1  0
  6  7  2  0
  7  8  1  0
  8  9  2  0
  9 10  1  0
  9 11  1  0
 11 12  2  0
 12 13  1  0
 13 14  1  0
 14 15  1  0
 15 16  1  0
 16 17  1  0
 17 18  1  0
 18 19  1  0
 19 20  1  0
 16  2  1  0
 19  2  1  0
 15  5  1  0
 12  6  1  0
 10 21  1  0
 20 22  1  0
  1 23  1  0
  1 24  1  0
  1 25  1  0
  3 26  1  0
  3 27  1  0
  4 28  1  0
  4 29  1  0
  5 30  1  1
  7 31  1  0
  8 32  1  0
 11 33  1  0
 13 34  1  0
 13 35  1  0
 14 36  1  0
 14 37  1  0
 15 38  1  6
 16 39  1  1
 17 40  1  0
 17 41  1  0
 18 42  1  0
 18 43  1  0
 19 44  1  6
M  END
>  <minimizedAffinity>  (1) 
-8.74742

$$$$
