


 22 25  0  0  0  0  0  0  0  0999 V2000
    2.3211   21.9025   35.3334 C   0  0  0  0  0  0  0  0  0  0  0  0
    3.1736   22.7849   34.3858 C   0  0  0  0  0  0  0  0  0  0  0  0
    2.5183   24.1662   34.2441 C   0  0  0  0  0  0  0  0  0  0  0  0
    1.1932   24.0988   33.4606 C   0  0  0  0  0  0  0  0  0  0  0  0
    1.3211   23.3783   32.0924 C   0  0  0  0  0  0  0  0  0  0  0  0
    0.0173   23.2482   31.3067 C   0  0  0  0  0  0  0  0  0  0  0  0
   -0.9777   24.2409   31.3769 C   0  0  0  0  0  0  0  0  0  0  0  0
   -2.1543   24.1470   30.6285 C   0  0  0  0  0  0  0  0  0  0  0  0
   -2.3426   23.0611   29.7876 C   0  0  0  0  0  0  0  0  0  0  0  0
   -3.4752   22.9249   29.0414 O   0  0  0  0  0  0  0  0  0  0  0  0
   -1.3703   22.0774   29.6786 C   0  0  0  0  0  0  0  0  0  0  0  0
   -0.1792   22.1666   30.4199 C   0  0  0  0  0  0  0  0  0  0  0  0
    0.8282   21.0528   30.2671 C   0  0  0  0  0  0  0  0  0  0  0  0
    2.1963   21.3670   30.8648 C   0  0  0  0  0  0  0  0  0  0  0  0
    2.0263   21.9974   32.2486 C   0  0  0  0  0  0  0  0  0  0  0  0
    3.3603   22.2038   32.9683 C   0  0  0  0  0  0  0  0  0  0  0  0
    4.2717   21.0013   33.1908 C   0  0  0  0  0  0  0  0  0  0  0  0
    5.1980   21.4320   34.3452 C   0  0  0  0  0  0  0  0  0  0  0  0
    4.6324   22.7609   34.8884 C   0  0  0  0  0  0  0  0  0  0  0  0
    5.3800   23.8414   34.3382 O   0  0  0  0  0  0  0  0  0  0  0  0
   -4.0536   23.6838   29.2209 H   0  0  0  0  0  0  0  0  0  0  0  0
    6.2931   23.7592   34.6628 H   0  0  0  0  0  0  0  0  0  0  0  0
  2  1  1  0  0  0
  2  3  1  0  0  0
  3  4  1  0  0  0
  4  5  1  0  0  0
  5  6  1  0  0  0
  6  7  2  0  0  0
  7  8  1  0  0  0
  8  9  2  0  0  0
  9 10  1  0  0  0
  9 11  1  0  0  0
 11 12  2  0  0  0
 12 13  1  0  0  0
 13 14  1  0  0  0
 14 15  1  0  0  0
 15 16  1  0  0  0
 16 17  1  0  0  0
 17 18  1  0  0  0
 18 19  1  0  0  0
 19 20  1  0  0  0
 16  2  1  0  0  0
 19  2  1  0  0  0
 15  5  1  0  0  0
 12  6  1  0  0  0
 10 21  1  0  0  0
 20 22  1  0  0  0
M  END
> <minimizedAffinity>
-8.82346

$$$$



 22 25  0  0  0  0  0  0  0  0999 V2000
    4.8730   22.9398   31.9394 C   0  0  0  0  0  0  0  0  0  0  0  0
    4.2173   21.9789   32.9640 C   0  0  0  0  0  0  0  0  0  0  0  0
    3.6858   20.7368   32.2344 C   0  0  0  0  0  0  0  0  0  0  0  0
    2.4785   21.0676   31.3360 C   0  0  0  0  0  0  0  0  0  0  0  0
    1.3477   21.8287   32.0772 C   0  0  0  0  0  0  0  0  0  0  0  0
    0.1534   22.2177   31.2076 C   0  0  0  0  0  0  0  0  0  0  0  0
   -0.2652   21.4037   30.1386 C   0  0  0  0  0  0  0  0  0  0  0  0
   -1.3820   21.7338   29.3658 C   0  0  0  0  0  0  0  0  0  0  0  0
   -2.1033   22.8794   29.6643 C   0  0  0  0  0  0  0  0  0  0  0  0
   -3.1968   23.2435   28.9365 O   0  0  0  0  0  0  0  0  0  0  0  0
   -1.7300   23.6904   30.7264 C   0  0  0  0  0  0  0  0  0  0  0  0
   -0.6138   23.3629   31.5158 C   0  0  0  0  0  0  0  0  0  0  0  0
   -0.2530   24.2984   32.6442 C   0  0  0  0  0  0  0  0  0  0  0  0
    0.7712   23.7274   33.6204 C   0  0  0  0  0  0  0  0  0  0  0  0
    1.9110   23.0613   32.8468 C   0  0  0  0  0  0  0  0  0  0  0  0
    3.0471   22.5956   33.7592 C   0  0  0  0  0  0  0  0  0  0  0  0
    3.7280   23.6144   34.6672 C   0  0  0  0  0  0  0  0  0  0  0  0
    5.0873   22.9731   35.0097 C   0  0  0  0  0  0  0  0  0  0  0  0
    5.2261   21.7308   34.1050 C   0  0  0  0  0  0  0  0  0  0  0  0
    4.8748   20.5711   34.8541 O   0  0  0  0  0  0  0  0  0  0  0  0
   -3.3330   22.5840   28.2371 H   0  0  0  0  0  0  0  0  0  0  0  0
    5.5231   20.4814   35.5736 H   0  0  0  0  0  0  0  0  0  0  0  0
  2  1  1  0  0  0
  2  3  1  0  0  0
  3  4  1  0  0  0
  4  5  1  0  0  0
  5  6  1  0  0  0
  6  7  2  0  0  0
  7  8  1  0  0  0
  8  9  2  0  0  0
  9 10  1  0  0  0
  9 11  1  0  0  0
 11 12  2  0  0  0
 12 13  1  0  0  0
 13 14  1  0  0  0
 14 15  1  0  0  0
 15 16  1  0  0  0
 16 17  1  0  0  0
 17 18  1  0  0  0
 18 19  1  0  0  0
 19 20  1  0  0  0
 16  2  1  0  0  0
 19  2  1  0  0  0
 15  5  1  0  0  0
 12  6  1  0  0  0
 10 21  1  0  0  0
 20 22  1  0  0  0
M  END
> <minimizedAffinity>
-8.74742

$$$$



 22 25  0  0  0  0  0  0  0  0999 V2000
    1.4928   19.8517   31.1944 C   0  0  0  0  0  0  0  0  0  0  0  0
    1.6445   21.3893   31.0691 C   0  0  0  0  0  0  0  0  0  0  0  0
    3.0635   21.8001   31.4878 C   0  0  0  0  0  0  0  0  0  0  0  0
    3.2973   21.6097   32.9988 C   0  0  0  0  0  0  0  0  0  0  0  0
    2.2166   22.2888   33.8810 C   0  0  0  0  0  0  0  0  0  0  0  0
    2.3868   22.0813   35.3850 C   0  0  0  0  0  0  0  0  0  0  0  0
    3.6643   21.9774   35.9661 C   0  0  0  0  0  0  0  0  0  0  0  0
    3.8268   21.8289   37.3463 C   0  0  0  0  0  0  0  0  0  0  0  0
    2.7084   21.7966   38.1649 C   0  0  0  0  0  0  0  0  0  0  0  0
    2.8174   21.6498   39.5157 O   0  0  0  0  0  0  0  0  0  0  0  0
    1.4363   21.9199   37.6251 C   0  0  0  0  0  0  0  0  0  0  0  0
    1.2620   22.0788   36.2392 C   0  0  0  0  0  0  0  0  0  0  0  0
   -0.1502   22.1891   35.7172 C   0  0  0  0  0  0  0  0  0  0  0  0
   -0.2410   22.6503   34.2656 C   0  0  0  0  0  0  0  0  0  0  0  0
    0.7825   21.8947   33.4155 C   0  0  0  0  0  0  0  0  0  0  0  0
    0.6473   22.2009   31.9228 C   0  0  0  0  0  0  0  0  0  0  0  0
   -0.6934   21.9555   31.2384 C   0  0  0  0  0  0  0  0  0  0  0  0
   -0.3443   21.8483   29.7408 C   0  0  0  0  0  0  0  0  0  0  0  0
    1.1955   21.8033   29.6519 C   0  0  0  0  0  0  0  0  0  0  0  0
    1.6782   23.1025   29.3224 O   0  0  0  0  0  0  0  0  0  0  0  0
    3.7591   21.5794   39.7414 H   0  0  0  0  0  0  0  0  0  0  0  0
    1.3417   23.3225   28.4368 H   0  0  0  0  0  0  0  0  0  0  0  0
  2  1  1  0  0  0
  2  3  1  0  0  0
  3  4  1  0  0  0
  4  5  1  0  0  0
  5  6  1  0  0  0
  6  7  2  0  0  0
  7  8  1  0  0  0
  8  9  2  0  0  0
  9 10  1  0  0  0
  9 11  1  0  0  0
 11 12  2  0  0  0
 12 13  1  0  0  0
 13 14  1  0  0  0
 14 15  1  0  0  0
 15 16  1  0  0  0
 16 17  1  0  0  0
 17 18  1  0  0  0
 18 19  1  0  0  0
 19 20  1  0  0  0
 16  2  1  0  0  0
 19  2  1  0  0  0
 15  5  1  0  0  0
 12  6  1  0  0  0
 10 21  1  0  0  0
 20 22  1  0  0  0
M  END
> <minimizedAffinity>
-8.53128

$$$$



 22 25  0  0  0  0  0  0  0  0999 V2000
    1.9003   21.5957   30.9063 C   0  0  0  0  0  0  0  0  0  0  0  0
    1.5994   23.0671   31.2903 C   0  0  0  0  0  0  0  0  0  0  0  0
    2.8580   23.7071   31.8935 C   0  0  0  0  0  0  0  0  0  0  0  0
    3.2025   23.1139   33.2733 C   0  0  0  0  0  0  0  0  0  0  0  0
    2.0122   23.1338   34.2683 C   0  0  0  0  0  0  0  0  0  0  0  0
    2.3003   22.5095   35.6325 C   0  0  0  0  0  0  0  0  0  0  0  0
    3.5781   22.5921   36.2163 C   0  0  0  0  0  0  0  0  0  0  0  0
    3.8365   22.0586   37.4820 C   0  0  0  0  0  0  0  0  0  0  0  0
    2.8113   21.4464   38.1861 C   0  0  0  0  0  0  0  0  0  0  0  0
    3.0168   20.9088   39.4218 O   0  0  0  0  0  0  0  0  0  0  0  0
    1.5348   21.3695   37.6479 C   0  0  0  0  0  0  0  0  0  0  0  0
    1.2618   21.9107   36.3795 C   0  0  0  0  0  0  0  0  0  0  0  0
   -0.1441   21.7764   35.8466 C   0  0  0  0  0  0  0  0  0  0  0  0
   -0.4267   22.6355   34.6177 C   0  0  0  0  0  0  0  0  0  0  0  0
    0.7322   22.5198   33.6254 C   0  0  0  0  0  0  0  0  0  0  0  0
    0.4498   23.2396   32.3054 C   0  0  0  0  0  0  0  0  0  0  0  0
   -0.7930   22.8571   31.5084 C   0  0  0  0  0  0  0  0  0  0  0  0
   -0.4936   23.3435   30.0766 C   0  0  0  0  0  0  0  0  0  0  0  0
    0.9891   23.7705   30.0598 C   0  0  0  0  0  0  0  0  0  0  0  0
    1.0643   25.1869   30.1916 O   0  0  0  0  0  0  0  0  0  0  0  0
    3.9480   21.0407   39.6625 H   0  0  0  0  0  0  0  0  0  0  0  0
    0.6404   25.5756   29.4073 H   0  0  0  0  0  0  0  0  0  0  0  0
  2  1  1  0  0  0
  2  3  1  0  0  0
  3  4  1  0  0  0
  4  5  1  0  0  0
  5  6  1  0  0  0
  6  7  2  0  0  0
  7  8  1  0  0  0
  8  9  2  0  0  0
  9 10  1  0  0  0
  9 11  1  0  0  0
 11 12  2  0  0  0
 12 13  1  0  0  0
 13 14  1  0  0  0
 14 15  1  0  0  0
 15 16  1  0  0  0
 16 17  1  0  0  0
 17 18  1  0  0  0
 18 19  1  0  0  0
 19 20  1  0  0  0
 16  2  1  0  0  0
 19  2  1  0  0  0
 15  5  1  0  0  0
 12  6  1  0  0  0
 10 21  1  0  0  0
 20 22  1  0  0  0
M  END
> <minimizedAffinity>
-8.00925

$$$$



 22 25  0  0  0  0  0  0  0  0999 V2000
   -0.2206   24.9010   32.1749 C   0  0  0  0  0  0  0  0  0  0  0  0
    0.4577   23.6096   31.6503 C   0  0  0  0  0  0  0  0  0  0  0  0
   -0.2310   22.3828   32.2653 C   0  0  0  0  0  0  0  0  0  0  0  0
    0.0475   22.2613   33.7758 C   0  0  0  0  0  0  0  0  0  0  0  0
    1.5569   22.3138   34.1314 C   0  0  0  0  0  0  0  0  0  0  0  0
    1.8713   22.2452   35.6249 C   0  0  0  0  0  0  0  0  0  0  0  0
    1.0683   21.4959   36.5047 C   0  0  0  0  0  0  0  0  0  0  0  0
    1.3750   21.3963   37.8647 C   0  0  0  0  0  0  0  0  0  0  0  0
    2.5011   22.0365   38.3583 C   0  0  0  0  0  0  0  0  0  0  0  0
    2.8381   21.9707   39.6775 O   0  0  0  0  0  0  0  0  0  0  0  0
    3.3259   22.7638   37.5123 C   0  0  0  0  0  0  0  0  0  0  0  0
    3.0317   22.8630   36.1412 C   0  0  0  0  0  0  0  0  0  0  0  0
    3.9614   23.6846   35.2813 C   0  0  0  0  0  0  0  0  0  0  0  0
    3.7450   23.5007   33.7822 C   0  0  0  0  0  0  0  0  0  0  0  0
    2.2487   23.5406   33.4645 C   0  0  0  0  0  0  0  0  0  0  0  0
    1.9660   23.5092   31.9615 C   0  0  0  0  0  0  0  0  0  0  0  0
    2.5879   24.5806   31.0718 C   0  0  0  0  0  0  0  0  0  0  0  0
    1.7135   24.5783   29.8023 C   0  0  0  0  0  0  0  0  0  0  0  0
    0.4977   23.6790   30.1092 C   0  0  0  0  0  0  0  0  0  0  0  0
    0.7216   22.3899   29.5456 O   0  0  0  0  0  0  0  0  0  0  0  0
    2.1747   21.4307   40.1368 H   0  0  0  0  0  0  0  0  0  0  0  0
    0.7676   22.4980   28.5801 H   0  0  0  0  0  0  0  0  0  0  0  0
  2  1  1  0  0  0
  2  3  1  0  0  0
  3  4  1  0  0  0
  4  5  1  0  0  0
  5  6  1  0  0  0
  6  7  2  0  0  0
  7  8  1  0  0  0
  8  9  2  0  0  0
  9 10  1  0  0  0
  9 11  1  0  0  0
 11 12  2  0  0  0
 12 13  1  0  0  0
 13 14  1  0  0  0
 14 15  1  0  0  0
 15 16  1  0  0  0
 16 17  1  0  0  0
 17 18  1  0  0  0
 18 19  1  0  0  0
 19 20  1  0  0  0
 16  2  1  0  0  0
 19  2  1  0  0  0
 15  5  1  0  0  0
 12  6  1  0  0  0
 10 21  1  0  0  0
 20 22  1  0  0  0
M  END
> <minimizedAffinity>
-7.78038

$$$$



 22 25  0  0  0  0  0  0  0  0999 V2000
    3.6471   24.0608   35.2926 C   0  0  0  0  0  0  0  0  0  0  0  0
    3.4697   22.5718   35.6857 C   0  0  0  0  0  0  0  0  0  0  0  0
    4.2320   21.6847   34.6910 C   0  0  0  0  0  0  0  0  0  0  0  0
    3.5818   21.6934   33.2941 C   0  0  0  0  0  0  0  0  0  0  0  0
    2.0660   21.3632   33.3167 C   0  0  0  0  0  0  0  0  0  0  0  0
    1.3745   21.4097   31.9551 C   0  0  0  0  0  0  0  0  0  0  0  0
    2.0558   21.0440   30.7793 C   0  0  0  0  0  0  0  0  0  0  0  0
    1.4160   21.0452   29.5366 C   0  0  0  0  0  0  0  0  0  0  0  0
    0.0783   21.4004   29.4588 C   0  0  0  0  0  0  0  0  0  0  0  0
   -0.5863   21.4197   28.2688 O   0  0  0  0  0  0  0  0  0  0  0  0
   -0.6274   21.7435   30.6030 C   0  0  0  0  0  0  0  0  0  0  0  0
    0.0039   21.7369   31.8591 C   0  0  0  0  0  0  0  0  0  0  0  0
   -0.8179   22.1379   33.0601 C   0  0  0  0  0  0  0  0  0  0  0  0
   -0.1560   21.8232   34.3983 C   0  0  0  0  0  0  0  0  0  0  0  0
    1.3151   22.2425   34.3615 C   0  0  0  0  0  0  0  0  0  0  0  0
    2.0035   22.0908   35.7191 C   0  0  0  0  0  0  0  0  0  0  0  0
    1.4168   22.8123   36.9279 C   0  0  0  0  0  0  0  0  0  0  0  0
    2.5839   22.8874   37.9321 C   0  0  0  0  0  0  0  0  0  0  0  0
    3.8443   22.4192   37.1749 C   0  0  0  0  0  0  0  0  0  0  0  0
    4.1000   21.0561   37.5001 O   0  0  0  0  0  0  0  0  0  0  0  0
    0.0321   21.1567   27.5680 H   0  0  0  0  0  0  0  0  0  0  0  0
    4.2998   21.0158   38.4511 H   0  0  0  0  0  0  0  0  0  0  0  0
  2  1  1  0  0  0
  2  3  1  0  0  0
  3  4  1  0  0  0
  4  5  1  0  0  0
  5  6  1  0  0  0
  6  7  2  0  0  0
  7  8  1  0  0  0
  8  9  2  0  0  0
  9 10  1  0  0  0
  9 11  1  0  0  0
 11 12  2  0  0  0
 12 13  1  0  0  0
 13 14  1  0  0  0
 14 15  1  0  0  0
 15 16  1  0  0  0
 16 17  1  0  0  0
 17 18  1  0  0  0
 18 19  1  0  0  0
 19 20  1  0  0  0
 16  2  1  0  0  0
 19  2  1  0  0  0
 15  5  1  0  0  0
 12  6  1  0  0  0
 10 21  1  0  0  0
 20 22  1  0  0  0
M  END
> <minimizedAffinity>
-7.42511

$$$$



 22 25  0  0  0  0  0  0  0  0999 V2000
    1.4642   23.9050   36.8857 C   0  0  0  0  0  0  0  0  0  0  0  0
    1.9124   22.5033   36.3984 C   0  0  0  0  0  0  0  0  0  0  0  0
    3.3001   22.6058   35.7493 C   0  0  0  0  0  0  0  0  0  0  0  0
    3.2577   23.3748   34.4147 C   0  0  0  0  0  0  0  0  0  0  0  0
    2.1958   22.8311   33.4226 C   0  0  0  0  0  0  0  0  0  0  0  0
    2.0896   23.5985   32.1058 C   0  0  0  0  0  0  0  0  0  0  0  0
    3.2206   24.1928   31.5157 C   0  0  0  0  0  0  0  0  0  0  0  0
    3.1368   24.8606   30.2908 C   0  0  0  0  0  0  0  0  0  0  0  0
    1.9182   24.9291   29.6335 C   0  0  0  0  0  0  0  0  0  0  0  0
    1.7875   25.5726   28.4390 O   0  0  0  0  0  0  0  0  0  0  0  0
    0.7896   24.3334   30.1778 C   0  0  0  0  0  0  0  0  0  0  0  0
    0.8646   23.6514   31.4048 C   0  0  0  0  0  0  0  0  0  0  0  0
   -0.4051   23.0418   31.9481 C   0  0  0  0  0  0  0  0  0  0  0  0
   -0.1835   22.0819   33.1132 C   0  0  0  0  0  0  0  0  0  0  0  0
    0.8038   22.6932   34.1095 C   0  0  0  0  0  0  0  0  0  0  0  0
    0.9603   21.8486   35.3753 C   0  0  0  0  0  0  0  0  0  0  0  0
   -0.2799   21.5187   36.1994 C   0  0  0  0  0  0  0  0  0  0  0  0
    0.2718   21.1568   37.5925 C   0  0  0  0  0  0  0  0  0  0  0  0
    1.7723   21.5167   37.5766 C   0  0  0  0  0  0  0  0  0  0  0  0
    2.5297   20.3328   37.3442 O   0  0  0  0  0  0  0  0  0  0  0  0
    2.6537   25.9323   28.1881 H   0  0  0  0  0  0  0  0  0  0  0  0
    2.3808   19.7384   38.0996 H   0  0  0  0  0  0  0  0  0  0  0  0
  2  1  1  0  0  0
  2  3  1  0  0  0
  3  4  1  0  0  0
  4  5  1  0  0  0
  5  6  1  0  0  0
  6  7  2  0  0  0
  7  8  1  0  0  0
  8  9  2  0  0  0
  9 10  1  0  0  0
  9 11  1  0  0  0
 11 12  2  0  0  0
 12 13  1  0  0  0
 13 14  1  0  0  0
 14 15  1  0  0  0
 15 16  1  0  0  0
 16 17  1  0  0  0
 17 18  1  0  0  0
 18 19  1  0  0  0
 19 20  1  0  0  0
 16  2  1  0  0  0
 19  2  1  0  0  0
 15  5  1  0  0  0
 12  6  1  0  0  0
 10 21  1  0  0  0
 20 22  1  0  0  0
M  END
> <minimizedAffinity>
-6.77530

$$$$



 22 25  0  0  0  0  0  0  0  0999 V2000
   -0.4572   20.2699   31.3545 C   0  0  0  0  0  0  0  0  0  0  0  0
    0.1090   21.1382   30.2019 C   0  0  0  0  0  0  0  0  0  0  0  0
    1.5558   20.7177   29.9065 C   0  0  0  0  0  0  0  0  0  0  0  0
    2.5133   21.0994   31.0518 C   0  0  0  0  0  0  0  0  0  0  0  0
    2.4194   22.5925   31.4630 C   0  0  0  0  0  0  0  0  0  0  0  0
    3.3190   22.9990   32.6290 C   0  0  0  0  0  0  0  0  0  0  0  0
    4.5751   22.3954   32.8249 C   0  0  0  0  0  0  0  0  0  0  0  0
    5.4195   22.7923   33.8655 C   0  0  0  0  0  0  0  0  0  0  0  0
    5.0204   23.8112   34.7165 C   0  0  0  0  0  0  0  0  0  0  0  0
    5.8086   24.2294   35.7471 O   0  0  0  0  0  0  0  0  0  0  0  0
    3.7980   24.4421   34.5357 C   0  0  0  0  0  0  0  0  0  0  0  0
    2.9450   24.0570   33.4867 C   0  0  0  0  0  0  0  0  0  0  0  0
    1.6223   24.7731   33.3584 C   0  0  0  0  0  0  0  0  0  0  0  0
    0.8981   24.5080   32.0419 C   0  0  0  0  0  0  0  0  0  0  0  0
    0.9406   23.0133   31.7175 C   0  0  0  0  0  0  0  0  0  0  0  0
    0.1074   22.6553   30.4856 C   0  0  0  0  0  0  0  0  0  0  0  0
   -1.3728   23.0226   30.4646 C   0  0  0  0  0  0  0  0  0  0  0  0
   -1.9826   22.0917   29.3980 C   0  0  0  0  0  0  0  0  0  0  0  0
   -0.8828   21.0770   29.0213 C   0  0  0  0  0  0  0  0  0  0  0  0
   -0.2614   21.4964   27.8100 O   0  0  0  0  0  0  0  0  0  0  0  0
    6.6232   23.7012   35.7438 H   0  0  0  0  0  0  0  0  0  0  0  0
   -0.9366   21.4670   27.1106 H   0  0  0  0  0  0  0  0  0  0  0  0
  2  1  1  0  0  0
  2  3  1  0  0  0
  3  4  1  0  0  0
  4  5  1  0  0  0
  5  6  1  0  0  0
  6  7  2  0  0  0
  7  8  1  0  0  0
  8  9  2  0  0  0
  9 10  1  0  0  0
  9 11  1  0  0  0
 11 12  2  0  0  0
 12 13  1  0  0  0
 13 14  1  0  0  0
 14 15  1  0  0  0
 15 16  1  0  0  0
 16 17  1  0  0  0
 17 18  1  0  0  0
 18 19  1  0  0  0
 19 20  1  0  0  0
 16  2  1  0  0  0
 19  2  1  0  0  0
 15  5  1  0  0  0
 12  6  1  0  0  0
 10 21  1  0  0  0
 20 22  1  0  0  0
M  END
> <minimizedAffinity>
-6.46020

$$$$



 22 25  0  0  0  0  0  0  0  0999 V2000
    0.6941   25.8620   31.8113 C   0  0  0  0  0  0  0  0  0  0  0  0
    1.0667   24.5175   31.1355 C   0  0  0  0  0  0  0  0  0  0  0  0
   -0.1817   23.6289   31.0393 C   0  0  0  0  0  0  0  0  0  0  0  0
   -0.6478   23.1364   32.4229 C   0  0  0  0  0  0  0  0  0  0  0  0
    0.4783   22.4609   33.2492 C   0  0  0  0  0  0  0  0  0  0  0  0
    0.0672   22.0025   34.6474 C   0  0  0  0  0  0  0  0  0  0  0  0
   -1.2357   21.5390   34.9083 C   0  0  0  0  0  0  0  0  0  0  0  0
   -1.6053   21.0798   36.1756 C   0  0  0  0  0  0  0  0  0  0  0  0
   -0.6672   21.0664   37.1962 C   0  0  0  0  0  0  0  0  0  0  0  0
   -0.9825   20.6310   38.4489 O   0  0  0  0  0  0  0  0  0  0  0  0
    0.6319   21.4950   36.9649 C   0  0  0  0  0  0  0  0  0  0  0  0
    1.0167   21.9503   35.6917 C   0  0  0  0  0  0  0  0  0  0  0  0
    2.4407   22.4188   35.5143 C   0  0  0  0  0  0  0  0  0  0  0  0
    2.8534   22.6125   34.0582 C   0  0  0  0  0  0  0  0  0  0  0  0
    1.7521   23.3573   33.3008 C   0  0  0  0  0  0  0  0  0  0  0  0
    2.1611   23.7153   31.8709 C   0  0  0  0  0  0  0  0  0  0  0  0
    3.4224   24.5438   31.6505 C   0  0  0  0  0  0  0  0  0  0  0  0
    3.2436   25.1455   30.2426 C   0  0  0  0  0  0  0  0  0  0  0  0
    1.7958   24.8299   29.8119 C   0  0  0  0  0  0  0  0  0  0  0  0
    1.8056   23.6930   28.9535 O   0  0  0  0  0  0  0  0  0  0  0  0
   -1.9161   20.3645   38.4548 H   0  0  0  0  0  0  0  0  0  0  0  0
    2.3012   23.9366   28.1528 H   0  0  0  0  0  0  0  0  0  0  0  0
  2  1  1  0  0  0
  2  3  1  0  0  0
  3  4  1  0  0  0
  4  5  1  0  0  0
  5  6  1  0  0  0
  6  7  2  0  0  0
  7  8  1  0  0  0
  8  9  2  0  0  0
  9 10  1  0  0  0
  9 11  1  0  0  0
 11 12  2  0  0  0
 12 13  1  0  0  0
 13 14  1  0  0  0
 14 15  1  0  0  0
 15 16  1  0  0  0
 16 17  1  0  0  0
 17 18  1  0  0  0
 18 19  1  0  0  0
 19 20  1  0  0  0
 16  2  1  0  0  0
 19  2  1  0  0  0
 15  5  1  0  0  0
 12  6  1  0  0  0
 10 21  1  0  0  0
 20 22  1  0  0  0
M  END
> <minimizedAffinity>
-6.42294

$$$$



 22 25  0  0  0  0  0  0  0  0999 V2000
   -0.4421   23.2854   31.0318 C   0  0  0  0  0  0  0  0  0  0  0  0
   -0.0554   21.7994   31.2451 C   0  0  0  0  0  0  0  0  0  0  0  0
   -0.1892   21.4434   32.7327 C   0  0  0  0  0  0  0  0  0  0  0  0
    0.8793   22.1455   33.5927 C   0  0  0  0  0  0  0  0  0  0  0  0
    2.3265   21.9302   33.0763 C   0  0  0  0  0  0  0  0  0  0  0  0
    3.4111   22.6512   33.8748 C   0  0  0  0  0  0  0  0  0  0  0  0
    3.2867   22.8442   35.2633 C   0  0  0  0  0  0  0  0  0  0  0  0
    4.2945   23.4665   36.0053 C   0  0  0  0  0  0  0  0  0  0  0  0
    5.4485   23.8917   35.3656 C   0  0  0  0  0  0  0  0  0  0  0  0
    6.4563   24.5066   36.0470 O   0  0  0  0  0  0  0  0  0  0  0  0
    5.6114   23.6952   34.0019 C   0  0  0  0  0  0  0  0  0  0  0  0
    4.6080   23.0623   33.2476 C   0  0  0  0  0  0  0  0  0  0  0  0
    4.8427   22.8966   31.7656 C   0  0  0  0  0  0  0  0  0  0  0  0
    3.8579   21.9520   31.0831 C   0  0  0  0  0  0  0  0  0  0  0  0
    2.4346   22.2551   31.5560 C   0  0  0  0  0  0  0  0  0  0  0  0
    1.3796   21.4434   30.8022 C   0  0  0  0  0  0  0  0  0  0  0  0
    1.3206   21.5429   29.2814 C   0  0  0  0  0  0  0  0  0  0  0  0
   -0.1019   21.0701   28.9221 C   0  0  0  0  0  0  0  0  0  0  0  0
   -0.8708   20.9428   30.2539 C   0  0  0  0  0  0  0  0  0  0  0  0
   -0.8841   19.5750   30.6518 O   0  0  0  0  0  0  0  0  0  0  0  0
    6.2005   24.5698   36.9815 H   0  0  0  0  0  0  0  0  0  0  0  0
   -1.3830   19.0806   29.9791 H   0  0  0  0  0  0  0  0  0  0  0  0
  2  1  1  0  0  0
  2  3  1  0  0  0
  3  4  1  0  0  0
  4  5  1  0  0  0
  5  6  1  0  0  0
  6  7  2  0  0  0
  7  8  1  0  0  0
  8  9  2  0  0  0
  9 10  1  0  0  0
  9 11  1  0  0  0
 11 12  2  0  0  0
 12 13  1  0  0  0
 13 14  1  0  0  0
 14 15  1  0  0  0
 15 16  1  0  0  0
 16 17  1  0  0  0
 17 18  1  0  0  0
 18 19  1  0  0  0
 19 20  1  0  0  0
 16  2  1  0  0  0
 19  2  1  0  0  0
 15  5  1  0  0  0
 12  6  1  0  0  0
 10 21  1  0  0  0
 20 22  1  0  0  0
M  END
> <minimizedAffinity>
-6.35434

$$$$



 22 25  0  0  0  0  0  0  0  0999 V2000
    0.5372   21.1786   36.7750 C   0  0  0  0  0  0  0  0  0  0  0  0
    1.3461   22.4495   36.4094 C   0  0  0  0  0  0  0  0  0  0  0  0
    0.3945   23.5226   35.8613 C   0  0  0  0  0  0  0  0  0  0  0  0
   -0.1766   23.1381   34.4829 C   0  0  0  0  0  0  0  0  0  0  0  0
    0.9138   22.7522   33.4488 C   0  0  0  0  0  0  0  0  0  0  0  0
    0.3841   22.3175   32.0833 C   0  0  0  0  0  0  0  0  0  0  0  0
   -0.7888   22.8786   31.5447 C   0  0  0  0  0  0  0  0  0  0  0  0
   -1.2552   22.5147   30.2784 C   0  0  0  0  0  0  0  0  0  0  0  0
   -0.5425   21.5920   29.5285 C   0  0  0  0  0  0  0  0  0  0  0  0
   -0.9605   21.2040   28.2904 O   0  0  0  0  0  0  0  0  0  0  0  0
    0.6300   21.0382   30.0218 C   0  0  0  0  0  0  0  0  0  0  0  0
    1.1130   21.4039   31.2904 C   0  0  0  0  0  0  0  0  0  0  0  0
    2.3849   20.7496   31.7729 C   0  0  0  0  0  0  0  0  0  0  0  0
    2.9920   21.4086   33.0078 C   0  0  0  0  0  0  0  0  0  0  0  0
    1.8957   21.6941   34.0363 C   0  0  0  0  0  0  0  0  0  0  0  0
    2.4540   22.2210   35.3595 C   0  0  0  0  0  0  0  0  0  0  0  0
    3.4897   21.3873   36.1067 C   0  0  0  0  0  0  0  0  0  0  0  0
    3.4241   21.9059   37.5568 C   0  0  0  0  0  0  0  0  0  0  0  0
    2.2012   22.8440   37.6318 C   0  0  0  0  0  0  0  0  0  0  0  0
    2.6462   24.1934   37.5298 O   0  0  0  0  0  0  0  0  0  0  0  0
   -1.7845   21.6741   28.0838 H   0  0  0  0  0  0  0  0  0  0  0  0
    3.2018   24.3766   38.3067 H   0  0  0  0  0  0  0  0  0  0  0  0
  2  1  1  0  0  0
  2  3  1  0  0  0
  3  4  1  0  0  0
  4  5  1  0  0  0
  5  6  1  0  0  0
  6  7  2  0  0  0
  7  8  1  0  0  0
  8  9  2  0  0  0
  9 10  1  0  0  0
  9 11  1  0  0  0
 11 12  2  0  0  0
 12 13  1  0  0  0
 13 14  1  0  0  0
 14 15  1  0  0  0
 15 16  1  0  0  0
 16 17  1  0  0  0
 17 18  1  0  0  0
 18 19  1  0  0  0
 19 20  1  0  0  0
 16  2  1  0  0  0
 19  2  1  0  0  0
 15  5  1  0  0  0
 12  6  1  0  0  0
 10 21  1  0  0  0
 20 22  1  0  0  0
M  END
> <minimizedAffinity>
-6.11803

$$$$



 22 25  0  0  0  0  0  0  0  0999 V2000
    3.8594   21.3566   34.0514 C   0  0  0  0  0  0  0  0  0  0  0  0
    3.7053   22.8446   34.4580 C   0  0  0  0  0  0  0  0  0  0  0  0
    2.3621   23.0436   35.1747 C   0  0  0  0  0  0  0  0  0  0  0  0
    1.1667   22.8816   34.2160 C   0  0  0  0  0  0  0  0  0  0  0  0
    1.2751   23.7585   32.9406 C   0  0  0  0  0  0  0  0  0  0  0  0
    0.1317   23.5894   31.9415 C   0  0  0  0  0  0  0  0  0  0  0  0
   -1.1780   23.3097   32.3738 C   0  0  0  0  0  0  0  0  0  0  0  0
   -2.2353   23.1948   31.4669 C   0  0  0  0  0  0  0  0  0  0  0  0
   -1.9950   23.3732   30.1133 C   0  0  0  0  0  0  0  0  0  0  0  0
   -2.9938   23.2672   29.1917 O   0  0  0  0  0  0  0  0  0  0  0  0
   -0.7193   23.6729   29.6576 C   0  0  0  0  0  0  0  0  0  0  0  0
    0.3496   23.7996   30.5619 C   0  0  0  0  0  0  0  0  0  0  0  0
    1.7146   24.1094   29.9967 C   0  0  0  0  0  0  0  0  0  0  0  0
    2.7430   24.5185   31.0469 C   0  0  0  0  0  0  0  0  0  0  0  0
    2.6601   23.5764   32.2497 C   0  0  0  0  0  0  0  0  0  0  0  0
    3.7620   23.8379   33.2780 C   0  0  0  0  0  0  0  0  0  0  0  0
    5.2184   23.7786   32.8291 C   0  0  0  0  0  0  0  0  0  0  0  0
    6.0114   23.5557   34.1320 C   0  0  0  0  0  0  0  0  0  0  0  0
    4.9711   23.2650   35.2339 C   0  0  0  0  0  0  0  0  0  0  0  0
    4.7409   24.4571   35.9792 O   0  0  0  0  0  0  0  0  0  0  0  0
   -3.8198   23.0587   29.6575 H   0  0  0  0  0  0  0  0  0  0  0  0
    5.5754   24.6905   36.4208 H   0  0  0  0  0  0  0  0  0  0  0  0
  2  1  1  0  0  0
  2  3  1  0  0  0
  3  4  1  0  0  0
  4  5  1  0  0  0
  5  6  1  0  0  0
  6  7  2  0  0  0
  7  8  1  0  0  0
  8  9  2  0  0  0
  9 10  1  0  0  0
  9 11  1  0  0  0
 11 12  2  0  0  0
 12 13  1  0  0  0
 13 14  1  0  0  0
 14 15  1  0  0  0
 15 16  1  0  0  0
 16 17  1  0  0  0
 17 18  1  0  0  0
 18 19  1  0  0  0
 19 20  1  0  0  0
 16  2  1  0  0  0
 19  2  1  0  0  0
 15  5  1  0  0  0
 12  6  1  0  0  0
 10 21  1  0  0  0
 20 22  1  0  0  0
M  END
> <minimizedAffinity>
-5.89785

$$$$
