
     RDKit          3D

 44 47  0  0  0  0  0  0  0  0999 V2000
    2.3211   21.9025   35.3334 C   0  0  0  0  0  0  0  0  0  0  0  0
    3.1736   22.7849   34.3858 C   0  0  2  0  0  0  0  0  0  0  0  0
    2.5183   24.1662   34.2441 C   0  0  0  0  0  0  0  0  0  0  0  0
    1.1932   24.0988   33.4606 C   0  0  0  0  0  0  0  0  0  0  0  0
    1.3211   23.3783   32.0924 C   0  0  2  0  0  0  0  0  0  0  0  0
    0.0173   23.2482   31.3067 C   0  0  0  0  0  0  0  0  0  0  0  0
   -0.9777   24.2409   31.3769 C   0  0  0  0  0  0  0  0  0  0  0  0
   -2.1543   24.1470   30.6285 C   0  0  0  0  0  0  0  0  0  0  0  0
   -2.3426   23.0611   29.7876 C   0  0  0  0  0  0  0  0  0  0  0  0
   -3.4752   22.9249   29.0414 O   0  0  0  0  0  0  0  0  0  0  0  0
   -1.3703   22.0774   29.6786 C   0  0  0  0  0  0  0  0  0  0  0  0
   -0.1792   22.1666   30.4199 C   0  0  0  0  0  0  0  0  0  0  0  0
    0.8282   21.0528   30.2671 C   0  0  0  0  0  0  0  0  0  0  0  0
    2.1963   21.3670   30.8648 C   0  0  0  0  0  0  0  0  0  0  0  0
    2.0263   21.9974   32.2486 C   0  0  1  0  0  0  0  0  0  0  0  0
    3.3603   22.2038   32.9683 C   0  0  2  0  0  0  0  0  0  0  0  0
    4.2717   21.0013   33.1908 C   0  0  0  0  0  0  0  0  0  0  0  0
    5.1980   21.4320   34.3452 C   0  0  0  0  0  0  0  0  0  0  0  0
    4.6324   22.7609   34.8884 C   0  0  1  0  0  0  0  0  0  0  0  0
    5.3800   23.8414   34.3382 O   0  0  0  0  0  0  0  0  0  0  0  0
   -4.0536   23.6838   29.2208 H   0  0  0  0  0  0  0  0  0  0  0  0
    6.2931   23.7592   34.6628 H   0  0  0  0  0  0  0  0  0  0  0  0
    2.2769   22.3556   36.3310 H   0  0  0  0  0  0  0  0  0  0  0  0
    1.2901   21.7823   34.9912 H   0  0  0  0  0  0  0  0  0  0  0  0
    2.7333   20.8965   35.4588 H   0  0  0  0  0  0  0  0  0  0  0  0
    2.3397   24.6095   35.2311 H   0  0  0  0  0  0  0  0  0  0  0  0
    3.1863   24.8558   33.7131 H   0  0  0  0  0  0  0  0  0  0  0  0
    0.4213   23.6110   34.0677 H   0  0  0  0  0  0  0  0  0  0  0  0
    0.8560   25.1316   33.3143 H   0  0  0  0  0  0  0  0  0  0  0  0
    1.9676   24.0136   31.4672 H   0  0  0  0  0  0  0  0  0  0  0  0
   -0.8526   25.1139   32.0112 H   0  0  0  0  0  0  0  0  0  0  0  0
   -2.9005   24.9300   30.7147 H   0  0  0  0  0  0  0  0  0  0  0  0
   -1.5400   21.2371   29.0098 H   0  0  0  0  0  0  0  0  0  0  0  0
    0.4198   20.1609   30.7596 H   0  0  0  0  0  0  0  0  0  0  0  0
    0.9571   20.8118   29.2049 H   0  0  0  0  0  0  0  0  0  0  0  0
    2.7789   20.4407   30.9182 H   0  0  0  0  0  0  0  0  0  0  0  0
    2.7446   22.0513   30.2045 H   0  0  0  0  0  0  0  0  0  0  0  0
    1.3918   21.3254   32.8410 H   0  0  0  0  0  0  0  0  0  0  0  0
    3.9407   22.9203   32.3641 H   0  0  0  0  0  0  0  0  0  0  0  0
    3.7011   20.1086   33.4703 H   0  0  0  0  0  0  0  0  0  0  0  0
    4.8486   20.7552   32.2933 H   0  0  0  0  0  0  0  0  0  0  0  0
    5.1848   20.6598   35.1225 H   0  0  0  0  0  0  0  0  0  0  0  0
    6.2297   21.5386   33.9935 H   0  0  0  0  0  0  0  0  0  0  0  0
    4.7081   22.8243   35.9789 H   0  0  0  0  0  0  0  0  0  0  0  0
  2  1  1  1
  2  3  1  0
  3  4  1  0
  4  5  1  0
  5  6  1  0
  6  7  2  0
  7  8  1  0
  8  9  2  0
  9 10  1  0
  9 11  1  0
 11 12  2  0
 12 13  1  0
 13 14  1  0
 14 15  1  0
 15 16  1  0
 16 17  1  0
 17 18  1  0
 18 19  1  0
 19 20  1  0
 16  2  1  0
 19  2  1  0
 15  5  1  0
 12  6  1  0
 10 21  1  0
 20 22  1  0
  1 23  1  0
  1 24  1  0
  1 25  1  0
  3 26  1  0
  3 27  1  0
  4 28  1  0
  4 29  1  0
  5 30  1  6
  7 31  1  0
  8 32  1  0
 11 33  1  0
 13 34  1  0
 13 35  1  0
 14 36  1  0
 14 37  1  0
 15 38  1  1
 16 39  1  6
 17 40  1  0
 17 41  1  0
 18 42  1  0
 18 43  1  0
 19 44  1  1
M  END
>  <minimizedAffinity>  (1) 
-8.82346

$$$$
