
     RDKit          3D

 30 30  0  0  0  0  0  0  0  0999 V2000
   -3.7221   -0.3844    1.1674 C   0  0  0  0  0  0  0  0  0  0  0  0
   -3.2900    0.1713   -0.1886 C   0  0  0  0  0  0  0  0  0  0  0  0
   -4.1458    1.3814   -0.5595 C   0  0  0  0  0  0  0  0  0  0  0  0
   -1.8007    0.5318   -0.1726 C   0  0  0  0  0  0  0  0  0  0  0  0
   -1.4141    1.6933   -0.2369 O   0  0  0  0  0  0  0  0  0  0  0  0
   -0.9871   -0.5879   -0.0809 N   0  0  0  0  0  0  0  0  0  0  0  0
    0.4207   -0.6273   -0.0192 C   0  0  0  0  0  0  0  0  0  0  0  0
    1.0178   -1.8934    0.0323 C   0  0  0  0  0  0  0  0  0  0  0  0
    2.4064   -2.0246    0.0882 C   0  0  0  0  0  0  0  0  0  0  0  0
    3.2060   -0.8749    0.0960 C   0  0  0  0  0  0  0  0  0  0  0  0
    4.6503   -1.0647    0.1202 N   0  0  0  0  0  0  0  0  0  0  0  0
    5.1031   -1.8170    0.9918 O   0  0  0  0  0  0  0  0  0  0  0  0
    5.3078   -0.4878   -0.7524 O   0  0  0  0  0  0  0  0  0  0  0  0
    2.6435    0.4086    0.0685 C   0  0  0  0  0  0  0  0  0  0  0  0
    3.4832    1.6589    0.1113 C   0  0  0  0  0  0  0  0  0  0  0  0
    4.5195    1.5680    0.9877 F   0  0  0  0  0  0  0  0  0  0  0  0
    2.7793    2.7567    0.5073 F   0  0  0  0  0  0  0  0  0  0  0  0
    4.0135    1.9790   -1.0968 F   0  0  0  0  0  0  0  0  0  0  0  0
    1.2376    0.5102    0.0000 C   0  0  0  0  0  0  0  0  0  0  0  0
   -3.5307    0.3383    1.9685 H   0  0  0  0  0  0  0  0  0  0  0  0
   -4.7910   -0.6221    1.1693 H   0  0  0  0  0  0  0  0  0  0  0  0
   -3.1787   -1.3014    1.4176 H   0  0  0  0  0  0  0  0  0  0  0  0
   -3.4396   -0.5971   -0.9577 H   0  0  0  0  0  0  0  0  0  0  0  0
   -4.0500    2.1825    0.1819 H   0  0  0  0  0  0  0  0  0  0  0  0
   -3.8430    1.7894   -1.5300 H   0  0  0  0  0  0  0  0  0  0  0  0
   -5.2033    1.1050   -0.6259 H   0  0  0  0  0  0  0  0  0  0  0  0
   -1.4578   -1.4846   -0.0827 H   0  0  0  0  0  0  0  0  0  0  0  0
    0.4114   -2.7968    0.0244 H   0  0  0  0  0  0  0  0  0  0  0  0
    2.8527   -3.0172    0.1192 H   0  0  0  0  0  0  0  0  0  0  0  0
    0.8012    1.5071   -0.0287 H   0  0  0  0  0  0  0  0  0  0  0  0
  1  2  1  0
  2  3  1  0
  2  4  1  0
  4  5  2  0
  4  6  1  0
  6  7  1  0
  7  8  2  0
  8  9  1  0
  9 10  2  0
 10 11  1  0
 11 12  2  0
 11 13  1  0
 10 14  1  0
 14 15  1  0
 15 16  1  0
 15 17  1  0
 15 18  1  0
 14 19  2  0
 19  7  1  0
  1 20  1  0
  1 21  1  0
  1 22  1  0
  2 23  1  0
  3 24  1  0
  3 25  1  0
  3 26  1  0
  6 27  1  0
  8 28  1  0
  9 29  1  0
 19 30  1  0
M  CHG  2  11   1  13  -1
M  END
$$$$
