


 20 20  0  0  0  0  0  0  0  0999 V2000
    1.2099   22.1106   32.5365 C   0  0  0  0  0  0  0  0  0  0  0  0
    2.5581   21.7669   32.3738 C   0  0  0  0  0  0  0  0  0  0  0  0
    3.4466   21.8395   33.4479 C   0  0  0  0  0  0  0  0  0  0  0  0
    2.9792   22.2578   34.7000 C   0  0  0  0  0  0  0  0  0  0  0  0
    1.6326   22.5878   34.9062 C   0  0  0  0  0  0  0  0  0  0  0  0
    0.7602   22.5166   33.7993 C   0  0  0  0  0  0  0  0  0  0  0  0
   -0.1489   23.0524   30.6476 C   0  0  0  0  0  0  0  0  0  0  0  0
    0.0330   24.2478   30.8494 O   0  0  0  0  0  0  0  0  0  0  0  0
    0.3851   22.0148   31.3974 N   0  0  0  0  0  0  0  0  0  0  0  0
    0.1785   21.0772   31.0751 H   0  0  0  0  0  0  0  0  0  0  0  0
   -0.9332   21.0285   29.3766 C   0  0  0  0  0  0  0  0  0  0  0  0
   -1.0229   22.5491   29.4939 C   0  0  0  0  0  0  0  0  0  0  0  0
   -2.4776   22.9790   29.6766 C   0  0  0  0  0  0  0  0  0  0  0  0
    1.1013   23.0066   36.2525 C   0  0  0  0  0  0  0  0  0  0  0  0
   -0.1801   23.4595   36.1956 F   0  0  0  0  0  0  0  0  0  0  0  0
    1.8134   24.0266   36.8093 F   0  0  0  0  0  0  0  0  0  0  0  0
    1.1256   22.0012   37.1645 F   0  0  0  0  0  0  0  0  0  0  0  0
    3.9520   22.3502   35.7806 N   0  0  0  0  0  0  0  0  0  0  0  0
    4.0817   21.3562   36.5057 O   0  0  0  0  0  0  0  0  0  0  0  0
    4.5969   23.4004   35.8681 O   0  0  0  0  0  0  0  0  0  0  0  0
 11 12  1  0  0  0
 12 13  1  0  0  0
 12  7  1  0  0  0
  7  8  2  0  0  0
  7  9  1  0  0  0
  9  1  1  0  0  0
  1  2  2  0  0  0
  2  3  1  0  0  0
  3  4  2  0  0  0
  4 18  1  0  0  0
 18 19  2  0  0  0
 18 20  1  0  0  0
  4  5  1  0  0  0
  5 14  1  0  0  0
 14 15  1  0  0  0
 14 16  1  0  0  0
 14 17  1  0  0  0
  5  6  2  0  0  0
  6  1  1  0  0  0
  9 10  1  0  0  0
M  CHG 1  18   1
M  CHG 1  20  -1
M  END
> <minimizedAffinity>
-7.21130

$$$$



 20 20  0  0  0  0  0  0  0  0999 V2000
    0.5702   22.4382   33.6978 C   0  0  0  0  0  0  0  0  0  0  0  0
   -0.2075   22.1299   34.8213 C   0  0  0  0  0  0  0  0  0  0  0  0
    0.3852   21.9617   36.0739 C   0  0  0  0  0  0  0  0  0  0  0  0
    1.7721   22.1072   36.2035 C   0  0  0  0  0  0  0  0  0  0  0  0
    2.5795   22.4376   35.1065 C   0  0  0  0  0  0  0  0  0  0  0  0
    1.9541   22.5896   33.8505 C   0  0  0  0  0  0  0  0  0  0  0  0
   -0.3442   23.7543   31.7656 C   0  0  0  0  0  0  0  0  0  0  0  0
    0.0303   24.8744   32.0940 O   0  0  0  0  0  0  0  0  0  0  0  0
   -0.1099   22.5835   32.4716 N   0  0  0  0  0  0  0  0  0  0  0  0
   -0.4455   21.7287   32.0447 H   0  0  0  0  0  0  0  0  0  0  0  0
   -0.9639   22.0735   30.0000 C   0  0  0  0  0  0  0  0  0  0  0  0
   -1.1461   23.5116   30.4825 C   0  0  0  0  0  0  0  0  0  0  0  0
   -2.6289   23.8130   30.6943 C   0  0  0  0  0  0  0  0  0  0  0  0
    4.0683   22.6331   35.2300 C   0  0  0  0  0  0  0  0  0  0  0  0
    4.3972   23.6942   36.0149 F   0  0  0  0  0  0  0  0  0  0  0  0
    4.6719   22.8774   34.0326 F   0  0  0  0  0  0  0  0  0  0  0  0
    4.7012   21.5483   35.7455 F   0  0  0  0  0  0  0  0  0  0  0  0
    2.3472   21.8879   37.5240 N   0  0  0  0  0  0  0  0  0  0  0  0
    2.4171   22.8681   38.2757 O   0  0  0  0  0  0  0  0  0  0  0  0
    2.6886   20.7339   37.8039 O   0  0  0  0  0  0  0  0  0  0  0  0
 11 12  1  0  0  0
 12 13  1  0  0  0
 12  7  1  0  0  0
  7  8  2  0  0  0
  7  9  1  0  0  0
  9  1  1  0  0  0
  1  2  2  0  0  0
  2  3  1  0  0  0
  3  4  2  0  0  0
  4 18  1  0  0  0
 18 19  2  0  0  0
 18 20  1  0  0  0
  4  5  1  0  0  0
  5 14  1  0  0  0
 14 15  1  0  0  0
 14 16  1  0  0  0
 14 17  1  0  0  0
  5  6  2  0  0  0
  6  1  1  0  0  0
  9 10  1  0  0  0
M  CHG 1  18   1
M  CHG 1  20  -1
M  END
> <minimizedAffinity>
-7.01334

$$$$



 20 20  0  0  0  0  0  0  0  0999 V2000
    0.9611   21.8606   32.8474 C   0  0  0  0  0  0  0  0  0  0  0  0
    2.2300   21.3314   32.5788 C   0  0  0  0  0  0  0  0  0  0  0  0
    3.2653   21.4566   33.5067 C   0  0  0  0  0  0  0  0  0  0  0  0
    3.0263   22.1161   34.7188 C   0  0  0  0  0  0  0  0  0  0  0  0
    1.7638   22.6382   35.0320 C   0  0  0  0  0  0  0  0  0  0  0  0
    0.7398   22.5075   34.0698 C   0  0  0  0  0  0  0  0  0  0  0  0
   -0.2961   22.5338   30.7815 C   0  0  0  0  0  0  0  0  0  0  0  0
    0.3039   23.5685   30.5128 O   0  0  0  0  0  0  0  0  0  0  0  0
   -0.0231   21.6948   31.8518 N   0  0  0  0  0  0  0  0  0  0  0  0
   -0.5799   20.8511   31.9126 H   0  0  0  0  0  0  0  0  0  0  0  0
   -2.4000   23.1807   29.5643 C   0  0  0  0  0  0  0  0  0  0  0  0
   -1.4640   22.0291   29.9274 C   0  0  0  0  0  0  0  0  0  0  0  0
   -0.9619   21.3382   28.6606 C   0  0  0  0  0  0  0  0  0  0  0  0
    1.4755   23.3206   36.3440 C   0  0  0  0  0  0  0  0  0  0  0  0
    0.1735   23.6941   36.4688 F   0  0  0  0  0  0  0  0  0  0  0  0
    2.1912   24.4680   36.5132 F   0  0  0  0  0  0  0  0  0  0  0  0
    1.7688   22.5432   37.4178 F   0  0  0  0  0  0  0  0  0  0  0  0
    4.1475   22.2512   35.6393 N   0  0  0  0  0  0  0  0  0  0  0  0
    4.8148   23.2901   35.5625 O   0  0  0  0  0  0  0  0  0  0  0  0
    4.3243   21.3342   36.4483 O   0  0  0  0  0  0  0  0  0  0  0  0
 11 12  1  0  0  0
 12 13  1  0  0  0
 12  7  1  0  0  0
  7  8  2  0  0  0
  7  9  1  0  0  0
  9  1  1  0  0  0
  1  2  2  0  0  0
  2  3  1  0  0  0
  3  4  2  0  0  0
  4 18  1  0  0  0
 18 19  2  0  0  0
 18 20  1  0  0  0
  4  5  1  0  0  0
  5 14  1  0  0  0
 14 15  1  0  0  0
 14 16  1  0  0  0
 14 17  1  0  0  0
  5  6  2  0  0  0
  6  1  1  0  0  0
  9 10  1  0  0  0
M  CHG 1  18   1
M  CHG 1  20  -1
M  END
> <minimizedAffinity>
-6.99816

$$$$



 20 20  0  0  0  0  0  0  0  0999 V2000
    1.0749   21.9360   32.6716 C   0  0  0  0  0  0  0  0  0  0  0  0
    0.6846   22.2411   33.9818 C   0  0  0  0  0  0  0  0  0  0  0  0
    1.6377   22.4209   34.9857 C   0  0  0  0  0  0  0  0  0  0  0  0
    2.9973   22.2970   34.6732 C   0  0  0  0  0  0  0  0  0  0  0  0
    3.4263   22.0152   33.3690 C   0  0  0  0  0  0  0  0  0  0  0  0
    2.4399   21.8267   32.3775 C   0  0  0  0  0  0  0  0  0  0  0  0
   -0.4433   22.7008   30.8244 C   0  0  0  0  0  0  0  0  0  0  0  0
   -0.0348   23.8493   30.6950 O   0  0  0  0  0  0  0  0  0  0  0  0
    0.0463   21.7644   31.7230 N   0  0  0  0  0  0  0  0  0  0  0  0
   -0.3668   20.8409   31.6767 H   0  0  0  0  0  0  0  0  0  0  0  0
   -2.5269   23.2717   29.5363 C   0  0  0  0  0  0  0  0  0  0  0  0
   -1.5885   22.1468   29.9702 C   0  0  0  0  0  0  0  0  0  0  0  0
   -1.0538   21.4048   28.7463 C   0  0  0  0  0  0  0  0  0  0  0  0
    4.8844   21.9120   33.0036 C   0  0  0  0  0  0  0  0  0  0  0  0
    5.5422   23.0968   33.1211 F   0  0  0  0  0  0  0  0  0  0  0  0
    5.0808   21.5241   31.7119 F   0  0  0  0  0  0  0  0  0  0  0  0
    5.5555   21.0095   33.7640 F   0  0  0  0  0  0  0  0  0  0  0  0
    3.9514   22.4595   35.7622 N   0  0  0  0  0  0  0  0  0  0  0  0
    4.4199   23.5916   35.9339 O   0  0  0  0  0  0  0  0  0  0  0  0
    4.1926   21.4629   36.4516 O   0  0  0  0  0  0  0  0  0  0  0  0
 11 12  1  0  0  0
 12 13  1  0  0  0
 12  7  1  0  0  0
  7  8  2  0  0  0
  7  9  1  0  0  0
  9  1  1  0  0  0
  1  2  2  0  0  0
  2  3  1  0  0  0
  3  4  2  0  0  0
  4 18  1  0  0  0
 18 19  2  0  0  0
 18 20  1  0  0  0
  4  5  1  0  0  0
  5 14  1  0  0  0
 14 15  1  0  0  0
 14 16  1  0  0  0
 14 17  1  0  0  0
  5  6  2  0  0  0
  6  1  1  0  0  0
  9 10  1  0  0  0
M  CHG 1  18   1
M  CHG 1  20  -1
M  END
> <minimizedAffinity>
-6.97721

$$$$



 20 20  0  0  0  0  0  0  0  0999 V2000
    0.7041   22.4284   33.5188 C   0  0  0  0  0  0  0  0  0  0  0  0
   -0.1304   22.1133   34.5989 C   0  0  0  0  0  0  0  0  0  0  0  0
    0.3953   21.9509   35.8818 C   0  0  0  0  0  0  0  0  0  0  0  0
    1.7717   22.1091   36.0861 C   0  0  0  0  0  0  0  0  0  0  0  0
    2.6342   22.4465   35.0340 C   0  0  0  0  0  0  0  0  0  0  0  0
    2.0763   22.5924   33.7460 C   0  0  0  0  0  0  0  0  0  0  0  0
    0.3038   21.8003   31.1215 C   0  0  0  0  0  0  0  0  0  0  0  0
    1.0649   20.8430   31.0378 O   0  0  0  0  0  0  0  0  0  0  0  0
    0.0900   22.5671   32.2575 N   0  0  0  0  0  0  0  0  0  0  0  0
   -0.6068   23.2979   32.1797 H   0  0  0  0  0  0  0  0  0  0  0  0
   -1.0545   21.0840   29.1294 C   0  0  0  0  0  0  0  0  0  0  0  0
   -0.5336   22.2766   29.9298 C   0  0  0  0  0  0  0  0  0  0  0  0
   -1.6982   23.1521   30.3897 C   0  0  0  0  0  0  0  0  0  0  0  0
    4.1124   22.6556   35.2377 C   0  0  0  0  0  0  0  0  0  0  0  0
    4.3890   23.7274   36.0283 F   0  0  0  0  0  0  0  0  0  0  0  0
    4.7795   22.8925   34.0731 F   0  0  0  0  0  0  0  0  0  0  0  0
    4.7240   21.5814   35.7991 F   0  0  0  0  0  0  0  0  0  0  0  0
    2.2766   21.8954   37.4359 N   0  0  0  0  0  0  0  0  0  0  0  0
    2.3486   22.8873   38.1718 O   0  0  0  0  0  0  0  0  0  0  0  0
    2.5608   20.7355   37.7528 O   0  0  0  0  0  0  0  0  0  0  0  0
 11 12  1  0  0  0
 12 13  1  0  0  0
 12  7  1  0  0  0
  7  8  2  0  0  0
  7  9  1  0  0  0
  9  1  1  0  0  0
  1  2  2  0  0  0
  2  3  1  0  0  0
  3  4  2  0  0  0
  4 18  1  0  0  0
 18 19  2  0  0  0
 18 20  1  0  0  0
  4  5  1  0  0  0
  5 14  1  0  0  0
 14 15  1  0  0  0
 14 16  1  0  0  0
 14 17  1  0  0  0
  5  6  2  0  0  0
  6  1  1  0  0  0
  9 10  1  0  0  0
M  CHG 1  18   1
M  CHG 1  20  -1
M  END
> <minimizedAffinity>
-6.76155

$$$$



 20 20  0  0  0  0  0  0  0  0999 V2000
    2.2485   22.7565   31.6178 C   0  0  0  0  0  0  0  0  0  0  0  0
    2.5636   24.1003   31.8564 C   0  0  0  0  0  0  0  0  0  0  0  0
    3.5139   24.4495   32.8175 C   0  0  0  0  0  0  0  0  0  0  0  0
    4.1584   23.4415   33.5454 C   0  0  0  0  0  0  0  0  0  0  0  0
    3.8856   22.0855   33.3182 C   0  0  0  0  0  0  0  0  0  0  0  0
    2.9117   21.7630   32.3491 C   0  0  0  0  0  0  0  0  0  0  0  0
   -0.1065   22.5096   30.7841 C   0  0  0  0  0  0  0  0  0  0  0  0
   -0.7111   22.7792   31.8158 O   0  0  0  0  0  0  0  0  0  0  0  0
    1.2725   22.4949   30.6347 N   0  0  0  0  0  0  0  0  0  0  0  0
    1.6199   22.2968   29.7043 H   0  0  0  0  0  0  0  0  0  0  0  0
   -0.8609   20.6291   29.2937 C   0  0  0  0  0  0  0  0  0  0  0  0
   -0.8378   22.1443   29.4880 C   0  0  0  0  0  0  0  0  0  0  0  0
   -2.2617   22.6982   29.4839 C   0  0  0  0  0  0  0  0  0  0  0  0
    4.5921   20.9840   34.0649 C   0  0  0  0  0  0  0  0  0  0  0  0
    4.2881   20.9669   35.3907 F   0  0  0  0  0  0  0  0  0  0  0  0
    5.9495   21.0951   34.0139 F   0  0  0  0  0  0  0  0  0  0  0  0
    4.3062   19.7496   33.5774 F   0  0  0  0  0  0  0  0  0  0  0  0
    5.1165   23.8579   34.5608 N   0  0  0  0  0  0  0  0  0  0  0  0
    6.2394   24.1973   34.1675 O   0  0  0  0  0  0  0  0  0  0  0  0
    4.7234   23.8733   35.7320 O   0  0  0  0  0  0  0  0  0  0  0  0
 11 12  1  0  0  0
 12 13  1  0  0  0
 12  7  1  0  0  0
  7  8  2  0  0  0
  7  9  1  0  0  0
  9  1  1  0  0  0
  1  2  2  0  0  0
  2  3  1  0  0  0
  3  4  2  0  0  0
  4 18  1  0  0  0
 18 19  2  0  0  0
 18 20  1  0  0  0
  4  5  1  0  0  0
  5 14  1  0  0  0
 14 15  1  0  0  0
 14 16  1  0  0  0
 14 17  1  0  0  0
  5  6  2  0  0  0
  6  1  1  0  0  0
  9 10  1  0  0  0
M  CHG 1  18   1
M  CHG 1  20  -1
M  END
> <minimizedAffinity>
-6.62741

$$$$



 20 20  0  0  0  0  0  0  0  0999 V2000
    2.4202   22.5917   34.4841 C   0  0  0  0  0  0  0  0  0  0  0  0
    2.1500   23.9520   34.2868 C   0  0  0  0  0  0  0  0  0  0  0  0
    1.6345   24.4072   33.0721 C   0  0  0  0  0  0  0  0  0  0  0  0
    1.3837   23.4895   32.0444 C   0  0  0  0  0  0  0  0  0  0  0  0
    1.6201   22.1184   32.2131 C   0  0  0  0  0  0  0  0  0  0  0  0
    2.1527   21.6888   33.4474 C   0  0  0  0  0  0  0  0  0  0  0  0
    2.2509   22.0127   36.9208 C   0  0  0  0  0  0  0  0  0  0  0  0
    1.0363   22.1000   37.0613 O   0  0  0  0  0  0  0  0  0  0  0  0
    2.9458   22.2211   35.7385 N   0  0  0  0  0  0  0  0  0  0  0  0
    3.9459   22.0653   35.7737 H   0  0  0  0  0  0  0  0  0  0  0  0
    2.9515   22.5881   39.2671 C   0  0  0  0  0  0  0  0  0  0  0  0
    3.1772   21.6464   38.0853 C   0  0  0  0  0  0  0  0  0  0  0  0
    2.9693   20.1963   38.5194 C   0  0  0  0  0  0  0  0  0  0  0  0
    1.3249   21.1096   31.1335 C   0  0  0  0  0  0  0  0  0  0  0  0
   -0.0035   21.0031   30.8608 F   0  0  0  0  0  0  0  0  0  0  0  0
    1.7211   19.8482   31.4641 F   0  0  0  0  0  0  0  0  0  0  0  0
    1.9479   21.3947   29.9614 F   0  0  0  0  0  0  0  0  0  0  0  0
    0.8786   24.0180   30.7842 N   0  0  0  0  0  0  0  0  0  0  0  0
   -0.3483   24.0126   30.6246 O   0  0  0  0  0  0  0  0  0  0  0  0
    1.7113   24.4626   29.9869 O   0  0  0  0  0  0  0  0  0  0  0  0
 11 12  1  0  0  0
 12 13  1  0  0  0
 12  7  1  0  0  0
  7  8  2  0  0  0
  7  9  1  0  0  0
  9  1  1  0  0  0
  1  2  2  0  0  0
  2  3  1  0  0  0
  3  4  2  0  0  0
  4 18  1  0  0  0
 18 19  2  0  0  0
 18 20  1  0  0  0
  4  5  1  0  0  0
  5 14  1  0  0  0
 14 15  1  0  0  0
 14 16  1  0  0  0
 14 17  1  0  0  0
  5  6  2  0  0  0
  6  1  1  0  0  0
  9 10  1  0  0  0
M  CHG 1  18   1
M  CHG 1  20  -1
M  END
> <minimizedAffinity>
-6.25230

$$$$



 20 20  0  0  0  0  0  0  0  0999 V2000
    1.2343   22.0774   31.3986 C   0  0  0  0  0  0  0  0  0  0  0  0
    1.3338   20.7596   31.8631 C   0  0  0  0  0  0  0  0  0  0  0  0
    2.4401   20.3485   32.6085 C   0  0  0  0  0  0  0  0  0  0  0  0
    3.4567   21.2682   32.8947 C   0  0  0  0  0  0  0  0  0  0  0  0
    3.3809   22.6005   32.4662 C   0  0  0  0  0  0  0  0  0  0  0  0
    2.2567   22.9844   31.7044 C   0  0  0  0  0  0  0  0  0  0  0  0
   -0.7876   23.4615   30.8527 C   0  0  0  0  0  0  0  0  0  0  0  0
   -0.6871   24.3131   31.7287 O   0  0  0  0  0  0  0  0  0  0  0  0
    0.0867   22.4042   30.6479 N   0  0  0  0  0  0  0  0  0  0  0  0
   -0.1078   21.8105   29.8509 H   0  0  0  0  0  0  0  0  0  0  0  0
   -2.0746   22.1053   29.1702 C   0  0  0  0  0  0  0  0  0  0  0  0
   -1.9389   23.4710   29.8414 C   0  0  0  0  0  0  0  0  0  0  0  0
   -3.2557   23.8635   30.5094 C   0  0  0  0  0  0  0  0  0  0  0  0
    4.4460   23.6151   32.7925 C   0  0  0  0  0  0  0  0  0  0  0  0
    4.5601   23.8486   34.1277 F   0  0  0  0  0  0  0  0  0  0  0  0
    4.2021   24.8362   32.2386 F   0  0  0  0  0  0  0  0  0  0  0  0
    5.6757   23.2495   32.3481 F   0  0  0  0  0  0  0  0  0  0  0  0
    4.6065   20.7821   33.6459 N   0  0  0  0  0  0  0  0  0  0  0  0
    4.5513   20.8737   34.8785 O   0  0  0  0  0  0  0  0  0  0  0  0
    5.5325   20.2844   32.9968 O   0  0  0  0  0  0  0  0  0  0  0  0
 11 12  1  0  0  0
 12 13  1  0  0  0
 12  7  1  0  0  0
  7  8  2  0  0  0
  7  9  1  0  0  0
  9  1  1  0  0  0
  1  2  2  0  0  0
  2  3  1  0  0  0
  3  4  2  0  0  0
  4 18  1  0  0  0
 18 19  2  0  0  0
 18 20  1  0  0  0
  4  5  1  0  0  0
  5 14  1  0  0  0
 14 15  1  0  0  0
 14 16  1  0  0  0
 14 17  1  0  0  0
  5  6  2  0  0  0
  6  1  1  0  0  0
  9 10  1  0  0  0
M  CHG 1  18   1
M  CHG 1  20  -1
M  END
> <minimizedAffinity>
-6.24327

$$$$



 20 20  0  0  0  0  0  0  0  0999 V2000
    1.6566   22.1669   33.6086 C   0  0  0  0  0  0  0  0  0  0  0  0
    2.0200   21.0104   32.9067 C   0  0  0  0  0  0  0  0  0  0  0  0
    1.6355   20.8338   31.5765 C   0  0  0  0  0  0  0  0  0  0  0  0
    0.8814   21.8280   30.9409 C   0  0  0  0  0  0  0  0  0  0  0  0
    0.5187   23.0084   31.6039 C   0  0  0  0  0  0  0  0  0  0  0  0
    0.9111   23.1540   32.9517 C   0  0  0  0  0  0  0  0  0  0  0  0
    1.3119   22.1139   36.0945 C   0  0  0  0  0  0  0  0  0  0  0  0
    0.1141   21.8550   36.1230 O   0  0  0  0  0  0  0  0  0  0  0  0
    2.0813   22.2593   34.9496 N   0  0  0  0  0  0  0  0  0  0  0  0
    3.0696   22.4278   35.0928 H   0  0  0  0  0  0  0  0  0  0  0  0
    2.3224   20.9819   38.1007 C   0  0  0  0  0  0  0  0  0  0  0  0
    2.1288   22.3128   37.3757 C   0  0  0  0  0  0  0  0  0  0  0  0
    3.4839   22.9496   37.0718 C   0  0  0  0  0  0  0  0  0  0  0  0
   -0.2622   24.1060   30.9289 C   0  0  0  0  0  0  0  0  0  0  0  0
   -0.6347   25.0927   31.7879 F   0  0  0  0  0  0  0  0  0  0  0  0
   -1.4246   23.6638   30.3715 F   0  0  0  0  0  0  0  0  0  0  0  0
    0.4264   24.6987   29.9201 F   0  0  0  0  0  0  0  0  0  0  0  0
    0.4753   21.5817   29.5635 N   0  0  0  0  0  0  0  0  0  0  0  0
    1.2391   21.9764   28.6739 O   0  0  0  0  0  0  0  0  0  0  0  0
   -0.5827   20.9674   29.3907 O   0  0  0  0  0  0  0  0  0  0  0  0
 11 12  1  0  0  0
 12 13  1  0  0  0
 12  7  1  0  0  0
  7  8  2  0  0  0
  7  9  1  0  0  0
  9  1  1  0  0  0
  1  2  2  0  0  0
  2  3  1  0  0  0
  3  4  2  0  0  0
  4 18  1  0  0  0
 18 19  2  0  0  0
 18 20  1  0  0  0
  4  5  1  0  0  0
  5 14  1  0  0  0
 14 15  1  0  0  0
 14 16  1  0  0  0
 14 17  1  0  0  0
  5  6  2  0  0  0
  6  1  1  0  0  0
  9 10  1  0  0  0
M  CHG 1  18   1
M  CHG 1  20  -1
M  END
> <minimizedAffinity>
-6.13209

$$$$



 20 20  0  0  0  0  0  0  0  0999 V2000
    1.6101   22.3533   34.5815 C   0  0  0  0  0  0  0  0  0  0  0  0
    1.1850   23.6770   34.4098 C   0  0  0  0  0  0  0  0  0  0  0  0
    0.8095   24.1471   33.1502 C   0  0  0  0  0  0  0  0  0  0  0  0
    0.8570   23.2809   32.0507 C   0  0  0  0  0  0  0  0  0  0  0  0
    1.2551   21.9441   32.1882 C   0  0  0  0  0  0  0  0  0  0  0  0
    1.6405   21.5003   33.4712 C   0  0  0  0  0  0  0  0  0  0  0  0
    3.1989   22.1554   36.5150 C   0  0  0  0  0  0  0  0  0  0  0  0
    4.1714   22.7236   36.0312 O   0  0  0  0  0  0  0  0  0  0  0  0
    1.9772   21.9653   35.8861 N   0  0  0  0  0  0  0  0  0  0  0  0
    1.2554   21.5164   36.4367 H   0  0  0  0  0  0  0  0  0  0  0  0
    3.0265   22.6676   38.9715 C   0  0  0  0  0  0  0  0  0  0  0  0
    3.2246   21.5676   37.9299 C   0  0  0  0  0  0  0  0  0  0  0  0
    2.1589   20.4856   38.0964 C   0  0  0  0  0  0  0  0  0  0  0  0
    1.2802   20.9859   31.0257 C   0  0  0  0  0  0  0  0  0  0  0  0
    0.0581   20.8219   30.4514 F   0  0  0  0  0  0  0  0  0  0  0  0
    1.6759   19.7312   31.3816 F   0  0  0  0  0  0  0  0  0  0  0  0
    2.1312   21.3737   30.0415 F   0  0  0  0  0  0  0  0  0  0  0  0
    0.4885   23.8281   30.7517 N   0  0  0  0  0  0  0  0  0  0  0  0
    1.3999   24.3050   30.0644 O   0  0  0  0  0  0  0  0  0  0  0  0
   -0.6992   23.7424   30.4221 O   0  0  0  0  0  0  0  0  0  0  0  0
 11 12  1  0  0  0
 12 13  1  0  0  0
 12  7  1  0  0  0
  7  8  2  0  0  0
  7  9  1  0  0  0
  9  1  1  0  0  0
  1  2  2  0  0  0
  2  3  1  0  0  0
  3  4  2  0  0  0
  4 18  1  0  0  0
 18 19  2  0  0  0
 18 20  1  0  0  0
  4  5  1  0  0  0
  5 14  1  0  0  0
 14 15  1  0  0  0
 14 16  1  0  0  0
 14 17  1  0  0  0
  5  6  2  0  0  0
  6  1  1  0  0  0
  9 10  1  0  0  0
M  CHG 1  18   1
M  CHG 1  20  -1
M  END
> <minimizedAffinity>
-6.09206

$$$$



 20 20  0  0  0  0  0  0  0  0999 V2000
    1.2606   22.4819   34.8337 C   0  0  0  0  0  0  0  0  0  0  0  0
    0.0783   21.7772   34.5738 C   0  0  0  0  0  0  0  0  0  0  0  0
   -0.5815   21.9186   33.3517 C   0  0  0  0  0  0  0  0  0  0  0  0
   -0.0494   22.7727   32.3777 C   0  0  0  0  0  0  0  0  0  0  0  0
    1.1435   23.4763   32.5934 C   0  0  0  0  0  0  0  0  0  0  0  0
    1.7819   23.3231   33.8426 C   0  0  0  0  0  0  0  0  0  0  0  0
    3.1129   21.7645   36.3686 C   0  0  0  0  0  0  0  0  0  0  0  0
    3.9339   21.4032   35.5331 O   0  0  0  0  0  0  0  0  0  0  0  0
    1.8564   22.2849   36.0961 N   0  0  0  0  0  0  0  0  0  0  0  0
    1.3112   22.5809   36.8966 H   0  0  0  0  0  0  0  0  0  0  0  0
    2.7694   22.8654   38.6040 C   0  0  0  0  0  0  0  0  0  0  0  0
    3.3958   21.6794   37.8723 C   0  0  0  0  0  0  0  0  0  0  0  0
    2.8782   20.3661   38.4568 C   0  0  0  0  0  0  0  0  0  0  0  0
    1.7520   24.3732   31.5467 C   0  0  0  0  0  0  0  0  0  0  0  0
    1.8513   23.7719   30.3306 F   0  0  0  0  0  0  0  0  0  0  0  0
    3.0215   24.7617   31.8548 F   0  0  0  0  0  0  0  0  0  0  0  0
    1.0508   25.5213   31.3644 F   0  0  0  0  0  0  0  0  0  0  0  0
   -0.7928   22.9128   31.1326 N   0  0  0  0  0  0  0  0  0  0  0  0
   -0.6030   22.0510   30.2654 O   0  0  0  0  0  0  0  0  0  0  0  0
   -1.5809   23.8610   31.0521 O   0  0  0  0  0  0  0  0  0  0  0  0
 11 12  1  0  0  0
 12 13  1  0  0  0
 12  7  1  0  0  0
  7  8  2  0  0  0
  7  9  1  0  0  0
  9  1  1  0  0  0
  1  2  2  0  0  0
  2  3  1  0  0  0
  3  4  2  0  0  0
  4 18  1  0  0  0
 18 19  2  0  0  0
 18 20  1  0  0  0
  4  5  1  0  0  0
  5 14  1  0  0  0
 14 15  1  0  0  0
 14 16  1  0  0  0
 14 17  1  0  0  0
  5  6  2  0  0  0
  6  1  1  0  0  0
  9 10  1  0  0  0
M  CHG 1  18   1
M  CHG 1  20  -1
M  END
> <minimizedAffinity>
-6.07548

$$$$



 20 20  0  0  0  0  0  0  0  0999 V2000
    1.6348   22.6078   33.5236 C   0  0  0  0  0  0  0  0  0  0  0  0
    2.9102   22.7190   34.0921 C   0  0  0  0  0  0  0  0  0  0  0  0
    3.1207   22.4074   35.4364 C   0  0  0  0  0  0  0  0  0  0  0  0
    2.0426   21.9763   36.2194 C   0  0  0  0  0  0  0  0  0  0  0  0
    0.7572   21.8312   35.6796 C   0  0  0  0  0  0  0  0  0  0  0  0
    0.5719   22.1651   34.3210 C   0  0  0  0  0  0  0  0  0  0  0  0
    0.9557   24.1009   31.6232 C   0  0  0  0  0  0  0  0  0  0  0  0
    0.4903   25.0370   32.2633 O   0  0  0  0  0  0  0  0  0  0  0  0
    1.5115   22.9496   32.1615 N   0  0  0  0  0  0  0  0  0  0  0  0
    1.8961   22.2865   31.4997 H   0  0  0  0  0  0  0  0  0  0  0  0
    1.9916   25.1146   29.5675 C   0  0  0  0  0  0  0  0  0  0  0  0
    0.9780   24.0983   30.0910 C   0  0  0  0  0  0  0  0  0  0  0  0
    1.2974   22.7068   29.5469 C   0  0  0  0  0  0  0  0  0  0  0  0
   -0.4093   21.3360   36.4946 C   0  0  0  0  0  0  0  0  0  0  0  0
   -0.0422   20.4398   37.4497 F   0  0  0  0  0  0  0  0  0  0  0  0
   -1.3446   20.6899   35.7429 F   0  0  0  0  0  0  0  0  0  0  0  0
   -1.0737   22.3375   37.1261 F   0  0  0  0  0  0  0  0  0  0  0  0
    2.3061   21.6965   37.6247 N   0  0  0  0  0  0  0  0  0  0  0  0
    2.6726   20.5496   37.9095 O   0  0  0  0  0  0  0  0  0  0  0  0
    2.1770   22.6344   38.4185 O   0  0  0  0  0  0  0  0  0  0  0  0
 11 12  1  0  0  0
 12 13  1  0  0  0
 12  7  1  0  0  0
  7  8  2  0  0  0
  7  9  1  0  0  0
  9  1  1  0  0  0
  1  2  2  0  0  0
  2  3  1  0  0  0
  3  4  2  0  0  0
  4 18  1  0  0  0
 18 19  2  0  0  0
 18 20  1  0  0  0
  4  5  1  0  0  0
  5 14  1  0  0  0
 14 15  1  0  0  0
 14 16  1  0  0  0
 14 17  1  0  0  0
  5  6  2  0  0  0
  6  1  1  0  0  0
  9 10  1  0  0  0
M  CHG 1  18   1
M  CHG 1  20  -1
M  END
> <minimizedAffinity>
-6.06659

$$$$



 20 20  0  0  0  0  0  0  0  0999 V2000
    0.4418   22.2379   32.5846 C   0  0  0  0  0  0  0  0  0  0  0  0
    1.8060   22.5557   32.5993 C   0  0  0  0  0  0  0  0  0  0  0  0
    2.5179   22.5854   33.7997 C   0  0  0  0  0  0  0  0  0  0  0  0
    1.8571   22.2902   34.9986 C   0  0  0  0  0  0  0  0  0  0  0  0
    0.4986   21.9457   35.0204 C   0  0  0  0  0  0  0  0  0  0  0  0
   -0.1981   21.9356   33.7932 C   0  0  0  0  0  0  0  0  0  0  0  0
   -0.9909   23.2376   30.7820 C   0  0  0  0  0  0  0  0  0  0  0  0
   -1.2472   24.3151   31.3074 O   0  0  0  0  0  0  0  0  0  0  0  0
   -0.1999   22.2383   31.3295 N   0  0  0  0  0  0  0  0  0  0  0  0
   -0.0446   21.4224   30.7500 H   0  0  0  0  0  0  0  0  0  0  0  0
   -1.1999   21.4057   29.0711 C   0  0  0  0  0  0  0  0  0  0  0  0
   -1.5378   22.8586   29.4017 C   0  0  0  0  0  0  0  0  0  0  0  0
   -3.0480   23.0786   29.3280 C   0  0  0  0  0  0  0  0  0  0  0  0
   -0.2236   21.5906   36.2942 C   0  0  0  0  0  0  0  0  0  0  0  0
   -0.7075   22.6813   36.9472 F   0  0  0  0  0  0  0  0  0  0  0  0
    0.5774   20.9617   37.1999 F   0  0  0  0  0  0  0  0  0  0  0  0
   -1.2731   20.7542   36.0892 F   0  0  0  0  0  0  0  0  0  0  0  0
    2.6349   22.3683   36.2280 N   0  0  0  0  0  0  0  0  0  0  0  0
    2.4233   23.3389   36.9654 O   0  0  0  0  0  0  0  0  0  0  0  0
    3.4202   21.4421   36.4561 O   0  0  0  0  0  0  0  0  0  0  0  0
 11 12  1  0  0  0
 12 13  1  0  0  0
 12  7  1  0  0  0
  7  8  2  0  0  0
  7  9  1  0  0  0
  9  1  1  0  0  0
  1  2  2  0  0  0
  2  3  1  0  0  0
  3  4  2  0  0  0
  4 18  1  0  0  0
 18 19  2  0  0  0
 18 20  1  0  0  0
  4  5  1  0  0  0
  5 14  1  0  0  0
 14 15  1  0  0  0
 14 16  1  0  0  0
 14 17  1  0  0  0
  5  6  2  0  0  0
  6  1  1  0  0  0
  9 10  1  0  0  0
M  CHG 1  18   1
M  CHG 1  20  -1
M  END
> <minimizedAffinity>
-5.96896

$$$$



 20 20  0  0  0  0  0  0  0  0999 V2000
    2.0249   22.6602   35.1650 C   0  0  0  0  0  0  0  0  0  0  0  0
    0.7631   22.7076   34.5585 C   0  0  0  0  0  0  0  0  0  0  0  0
    0.6272   23.1020   33.2264 C   0  0  0  0  0  0  0  0  0  0  0  0
    1.7681   23.4495   32.4923 C   0  0  0  0  0  0  0  0  0  0  0  0
    3.0489   23.3922   33.0585 C   0  0  0  0  0  0  0  0  0  0  0  0
    3.1544   23.0017   34.4106 C   0  0  0  0  0  0  0  0  0  0  0  0
    3.1225   21.6541   37.1861 C   0  0  0  0  0  0  0  0  0  0  0  0
    4.2176   21.3868   36.7045 O   0  0  0  0  0  0  0  0  0  0  0  0
    2.0690   22.2577   36.5153 N   0  0  0  0  0  0  0  0  0  0  0  0
    1.2421   22.4548   37.0657 H   0  0  0  0  0  0  0  0  0  0  0  0
    3.6212   20.1687   39.1537 C   0  0  0  0  0  0  0  0  0  0  0  0
    2.7807   21.3394   38.6464 C   0  0  0  0  0  0  0  0  0  0  0  0
    2.9891   22.5631   39.5371 C   0  0  0  0  0  0  0  0  0  0  0  0
    4.2926   23.7280   32.2771 C   0  0  0  0  0  0  0  0  0  0  0  0
    4.0958   24.7297   31.3782 F   0  0  0  0  0  0  0  0  0  0  0  0
    4.7563   22.6781   31.5421 F   0  0  0  0  0  0  0  0  0  0  0  0
    5.3274   24.1060   33.0706 F   0  0  0  0  0  0  0  0  0  0  0  0
    1.5708   23.8873   31.1168 N   0  0  0  0  0  0  0  0  0  0  0  0
    1.6460   23.0218   30.2359 O   0  0  0  0  0  0  0  0  0  0  0  0
    1.3093   25.0817   30.9390 O   0  0  0  0  0  0  0  0  0  0  0  0
 11 12  1  0  0  0
 12 13  1  0  0  0
 12  7  1  0  0  0
  7  8  2  0  0  0
  7  9  1  0  0  0
  9  1  1  0  0  0
  1  2  2  0  0  0
  2  3  1  0  0  0
  3  4  2  0  0  0
  4 18  1  0  0  0
 18 19  2  0  0  0
 18 20  1  0  0  0
  4  5  1  0  0  0
  5 14  1  0  0  0
 14 15  1  0  0  0
 14 16  1  0  0  0
 14 17  1  0  0  0
  5  6  2  0  0  0
  6  1  1  0  0  0
  9 10  1  0  0  0
M  CHG 1  18   1
M  CHG 1  20  -1
M  END
> <minimizedAffinity>
-5.67134

$$$$



 20 20  0  0  0  0  0  0  0  0999 V2000
    1.1752   21.9607   33.1046 C   0  0  0  0  0  0  0  0  0  0  0  0
    1.6591   20.8387   32.4197 C   0  0  0  0  0  0  0  0  0  0  0  0
    1.1415   20.4878   31.1717 C   0  0  0  0  0  0  0  0  0  0  0  0
    0.1303   21.2712   30.6016 C   0  0  0  0  0  0  0  0  0  0  0  0
   -0.3628   22.4136   31.2469 C   0  0  0  0  0  0  0  0  0  0  0  0
    0.1709   22.7369   32.5127 C   0  0  0  0  0  0  0  0  0  0  0  0
    2.8248   23.0694   34.6381 C   0  0  0  0  0  0  0  0  0  0  0  0
    3.4488   23.7288   33.8144 O   0  0  0  0  0  0  0  0  0  0  0  0
    1.7498   22.2375   34.3619 N   0  0  0  0  0  0  0  0  0  0  0  0
    1.3097   21.7949   35.1594 H   0  0  0  0  0  0  0  0  0  0  0  0
    1.9780   23.5547   36.9563 C   0  0  0  0  0  0  0  0  0  0  0  0
    3.1767   23.0925   36.1294 C   0  0  0  0  0  0  0  0  0  0  0  0
    3.6479   21.7194   36.6056 C   0  0  0  0  0  0  0  0  0  0  0  0
   -1.4254   23.2901   30.6364 C   0  0  0  0  0  0  0  0  0  0  0  0
   -2.4002   23.6309   31.5217 F   0  0  0  0  0  0  0  0  0  0  0  0
   -2.0795   22.6884   29.6032 F   0  0  0  0  0  0  0  0  0  0  0  0
   -0.9273   24.4476   30.1312 F   0  0  0  0  0  0  0  0  0  0  0  0
   -0.4011   20.8442   29.3140 N   0  0  0  0  0  0  0  0  0  0  0  0
    0.0207   21.4314   28.3101 O   0  0  0  0  0  0  0  0  0  0  0  0
   -1.2051   19.9061   29.3208 O   0  0  0  0  0  0  0  0  0  0  0  0
 11 12  1  0  0  0
 12 13  1  0  0  0
 12  7  1  0  0  0
  7  8  2  0  0  0
  7  9  1  0  0  0
  9  1  1  0  0  0
  1  2  2  0  0  0
  2  3  1  0  0  0
  3  4  2  0  0  0
  4 18  1  0  0  0
 18 19  2  0  0  0
 18 20  1  0  0  0
  4  5  1  0  0  0
  5 14  1  0  0  0
 14 15  1  0  0  0
 14 16  1  0  0  0
 14 17  1  0  0  0
  5  6  2  0  0  0
  6  1  1  0  0  0
  9 10  1  0  0  0
M  CHG 1  18   1
M  CHG 1  20  -1
M  END
> <minimizedAffinity>
-5.33986

$$$$



 20 20  0  0  0  0  0  0  0  0999 V2000
    1.8768   22.8407   34.3755 C   0  0  0  0  0  0  0  0  0  0  0  0
    2.9836   23.4619   33.7828 C   0  0  0  0  0  0  0  0  0  0  0  0
    2.9024   23.9785   32.4885 C   0  0  0  0  0  0  0  0  0  0  0  0
    1.6982   23.8750   31.7811 C   0  0  0  0  0  0  0  0  0  0  0  0
    0.5634   23.2807   32.3499 C   0  0  0  0  0  0  0  0  0  0  0  0
    0.6786   22.7565   33.6551 C   0  0  0  0  0  0  0  0  0  0  0  0
    3.2366   21.9777   36.3011 C   0  0  0  0  0  0  0  0  0  0  0  0
    4.3545   22.0542   35.8042 O   0  0  0  0  0  0  0  0  0  0  0  0
    2.0495   22.3413   35.6824 N   0  0  0  0  0  0  0  0  0  0  0  0
    1.2099   22.2618   36.2431 H   0  0  0  0  0  0  0  0  0  0  0  0
    3.0901   22.5922   38.7358 C   0  0  0  0  0  0  0  0  0  0  0  0
    3.0160   21.4507   37.7230 C   0  0  0  0  0  0  0  0  0  0  0  0
    1.6753   20.7275   37.8407 C   0  0  0  0  0  0  0  0  0  0  0  0
   -0.7517   23.1899   31.6201 C   0  0  0  0  0  0  0  0  0  0  0  0
   -1.7497   22.6837   32.3934 F   0  0  0  0  0  0  0  0  0  0  0  0
   -0.6979   22.3725   30.5309 F   0  0  0  0  0  0  0  0  0  0  0  0
   -1.1810   24.3915   31.1565 F   0  0  0  0  0  0  0  0  0  0  0  0
    1.6739   24.3984   30.4216 N   0  0  0  0  0  0  0  0  0  0  0  0
    1.5092   25.6177   30.2924 O   0  0  0  0  0  0  0  0  0  0  0  0
    1.8542   23.5900   29.5048 O   0  0  0  0  0  0  0  0  0  0  0  0
 11 12  1  0  0  0
 12 13  1  0  0  0
 12  7  1  0  0  0
  7  8  2  0  0  0
  7  9  1  0  0  0
  9  1  1  0  0  0
  1  2  2  0  0  0
  2  3  1  0  0  0
  3  4  2  0  0  0
  4 18  1  0  0  0
 18 19  2  0  0  0
 18 20  1  0  0  0
  4  5  1  0  0  0
  5 14  1  0  0  0
 14 15  1  0  0  0
 14 16  1  0  0  0
 14 17  1  0  0  0
  5  6  2  0  0  0
  6  1  1  0  0  0
  9 10  1  0  0  0
M  CHG 1  18   1
M  CHG 1  20  -1
M  END
> <minimizedAffinity>
-5.32043

$$$$



 20 20  0  0  0  0  0  0  0  0999 V2000
    1.7021   22.4688   34.7211 C   0  0  0  0  0  0  0  0  0  0  0  0
    1.8048   23.8387   34.4473 C   0  0  0  0  0  0  0  0  0  0  0  0
    2.9377   24.3565   33.8173 C   0  0  0  0  0  0  0  0  0  0  0  0
    3.9781   23.4922   33.4543 C   0  0  0  0  0  0  0  0  0  0  0  0
    3.9010   22.1130   33.6915 C   0  0  0  0  0  0  0  0  0  0  0  0
    2.7491   21.6198   34.3407 C   0  0  0  0  0  0  0  0  0  0  0  0
   -0.6322   21.5473   34.7790 C   0  0  0  0  0  0  0  0  0  0  0  0
   -0.8153   21.3958   33.5764 O   0  0  0  0  0  0  0  0  0  0  0  0
    0.5267   22.0335   35.3661 N   0  0  0  0  0  0  0  0  0  0  0  0
    0.5400   22.0562   36.3785 H   0  0  0  0  0  0  0  0  0  0  0  0
   -1.0872   21.0284   37.1978 C   0  0  0  0  0  0  0  0  0  0  0  0
   -1.7088   21.2001   35.8127 C   0  0  0  0  0  0  0  0  0  0  0  0
   -2.7992   22.2695   35.8531 C   0  0  0  0  0  0  0  0  0  0  0  0
    4.9929   21.1606   33.2781 C   0  0  0  0  0  0  0  0  0  0  0  0
    4.6442   19.8560   33.4419 F   0  0  0  0  0  0  0  0  0  0  0  0
    6.1351   21.3162   34.0051 F   0  0  0  0  0  0  0  0  0  0  0  0
    5.3605   21.3120   31.9800 F   0  0  0  0  0  0  0  0  0  0  0  0
    5.1537   24.0853   32.8308 N   0  0  0  0  0  0  0  0  0  0  0  0
    5.0613   24.3909   31.6355 O   0  0  0  0  0  0  0  0  0  0  0  0
    6.1400   24.2693   33.5518 O   0  0  0  0  0  0  0  0  0  0  0  0
 11 12  1  0  0  0
 12 13  1  0  0  0
 12  7  1  0  0  0
  7  8  2  0  0  0
  7  9  1  0  0  0
  9  1  1  0  0  0
  1  2  2  0  0  0
  2  3  1  0  0  0
  3  4  2  0  0  0
  4 18  1  0  0  0
 18 19  2  0  0  0
 18 20  1  0  0  0
  4  5  1  0  0  0
  5 14  1  0  0  0
 14 15  1  0  0  0
 14 16  1  0  0  0
 14 17  1  0  0  0
  5  6  2  0  0  0
  6  1  1  0  0  0
  9 10  1  0  0  0
M  CHG 1  18   1
M  CHG 1  20  -1
M  END
> <minimizedAffinity>
-5.10406

$$$$



 20 20  0  0  0  0  0  0  0  0999 V2000
    0.9116   22.6718   32.9577 C   0  0  0  0  0  0  0  0  0  0  0  0
    0.3911   23.7451   32.2234 C   0  0  0  0  0  0  0  0  0  0  0  0
   -0.2966   23.5243   31.0289 C   0  0  0  0  0  0  0  0  0  0  0  0
   -0.4679   22.2136   30.5662 C   0  0  0  0  0  0  0  0  0  0  0  0
    0.0189   21.1136   31.2855 C   0  0  0  0  0  0  0  0  0  0  0  0
    0.7205   21.3680   32.4832 C   0  0  0  0  0  0  0  0  0  0  0  0
    1.0823   23.0402   35.4350 C   0  0  0  0  0  0  0  0  0  0  0  0
   -0.0764   22.7962   35.7519 O   0  0  0  0  0  0  0  0  0  0  0  0
    1.5977   22.9865   34.1483 N   0  0  0  0  0  0  0  0  0  0  0  0
    2.5891   23.1715   34.0551 H   0  0  0  0  0  0  0  0  0  0  0  0
    2.3813   22.3125   37.4623 C   0  0  0  0  0  0  0  0  0  0  0  0
    2.1368   23.4478   36.4695 C   0  0  0  0  0  0  0  0  0  0  0  0
    3.4469   23.8477   35.7927 C   0  0  0  0  0  0  0  0  0  0  0  0
   -0.1844   19.6937   30.8242 C   0  0  0  0  0  0  0  0  0  0  0  0
   -0.7750   19.6163   29.6013 F   0  0  0  0  0  0  0  0  0  0  0  0
   -0.9936   18.9774   31.6546 F   0  0  0  0  0  0  0  0  0  0  0  0
    0.9761   18.9931   30.7483 F   0  0  0  0  0  0  0  0  0  0  0  0
   -1.1622   22.0375   29.2975 N   0  0  0  0  0  0  0  0  0  0  0  0
   -2.3498   22.3815   29.2550 O   0  0  0  0  0  0  0  0  0  0  0  0
   -0.5026   21.5909   28.3530 O   0  0  0  0  0  0  0  0  0  0  0  0
 11 12  1  0  0  0
 12 13  1  0  0  0
 12  7  1  0  0  0
  7  8  2  0  0  0
  7  9  1  0  0  0
  9  1  1  0  0  0
  1  2  2  0  0  0
  2  3  1  0  0  0
  3  4  2  0  0  0
  4 18  1  0  0  0
 18 19  2  0  0  0
 18 20  1  0  0  0
  4  5  1  0  0  0
  5 14  1  0  0  0
 14 15  1  0  0  0
 14 16  1  0  0  0
 14 17  1  0  0  0
  5  6  2  0  0  0
  6  1  1  0  0  0
  9 10  1  0  0  0
M  CHG 1  18   1
M  CHG 1  20  -1
M  END
> <minimizedAffinity>
-4.99123

$$$$



 20 20  0  0  0  0  0  0  0  0999 V2000
    1.8251   22.7785   32.3291 C   0  0  0  0  0  0  0  0  0  0  0  0
    1.0622   23.9176   32.6169 C   0  0  0  0  0  0  0  0  0  0  0  0
   -0.1527   24.1441   31.9680 C   0  0  0  0  0  0  0  0  0  0  0  0
   -0.6106   23.2179   31.0226 C   0  0  0  0  0  0  0  0  0  0  0  0
    0.1142   22.0557   30.7253 C   0  0  0  0  0  0  0  0  0  0  0  0
    1.3446   21.8592   31.3880 C   0  0  0  0  0  0  0  0  0  0  0  0
    3.2194   22.3568   34.3735 C   0  0  0  0  0  0  0  0  0  0  0  0
    2.3236   22.1706   35.1893 O   0  0  0  0  0  0  0  0  0  0  0  0
    3.0419   22.6329   33.0258 N   0  0  0  0  0  0  0  0  0  0  0  0
    3.8851   22.7159   32.4710 H   0  0  0  0  0  0  0  0  0  0  0  0
    5.3878   21.1115   34.1018 C   0  0  0  0  0  0  0  0  0  0  0  0
    4.6991   22.3015   34.7679 C   0  0  0  0  0  0  0  0  0  0  0  0
    5.4162   23.5995   34.4000 C   0  0  0  0  0  0  0  0  0  0  0  0
   -0.3764   21.0290   29.7377 C   0  0  0  0  0  0  0  0  0  0  0  0
    0.0755   21.2546   28.4747 F   0  0  0  0  0  0  0  0  0  0  0  0
   -1.7347   21.0048   29.6291 F   0  0  0  0  0  0  0  0  0  0  0  0
   -0.0120   19.7637   30.0683 F   0  0  0  0  0  0  0  0  0  0  0  0
   -1.8668   23.5164   30.3476 N   0  0  0  0  0  0  0  0  0  0  0  0
   -2.8578   23.7052   31.0638 O   0  0  0  0  0  0  0  0  0  0  0  0
   -1.8383   23.5921   29.1147 O   0  0  0  0  0  0  0  0  0  0  0  0
 11 12  1  0  0  0
 12 13  1  0  0  0
 12  7  1  0  0  0
  7  8  2  0  0  0
  7  9  1  0  0  0
  9  1  1  0  0  0
  1  2  2  0  0  0
  2  3  1  0  0  0
  3  4  2  0  0  0
  4 18  1  0  0  0
 18 19  2  0  0  0
 18 20  1  0  0  0
  4  5  1  0  0  0
  5 14  1  0  0  0
 14 15  1  0  0  0
 14 16  1  0  0  0
 14 17  1  0  0  0
  5  6  2  0  0  0
  6  1  1  0  0  0
  9 10  1  0  0  0
M  CHG 1  18   1
M  CHG 1  20  -1
M  END
> <minimizedAffinity>
-4.97184

$$$$
