
     RDKit          3D

 30 30  0  0  0  0  0  0  0  0999 V2000
    1.2099   22.1106   32.5365 C   0  0  0  0  0  0  0  0  0  0  0  0
    2.5581   21.7669   32.3738 C   0  0  0  0  0  0  0  0  0  0  0  0
    3.4466   21.8395   33.4479 C   0  0  0  0  0  0  0  0  0  0  0  0
    2.9792   22.2578   34.7000 C   0  0  0  0  0  0  0  0  0  0  0  0
    1.6326   22.5878   34.9062 C   0  0  0  0  0  0  0  0  0  0  0  0
    0.7602   22.5166   33.7993 C   0  0  0  0  0  0  0  0  0  0  0  0
   -0.1489   23.0524   30.6476 C   0  0  0  0  0  0  0  0  0  0  0  0
    0.0330   24.2478   30.8494 O   0  0  0  0  0  0  0  0  0  0  0  0
    0.3851   22.0148   31.3974 N   0  0  0  0  0  0  0  0  0  0  0  0
    0.7517   21.2972   30.7859 H   0  0  0  0  0  0  0  0  0  0  0  0
   -0.9332   21.0285   29.3766 C   0  0  0  0  0  0  0  0  0  0  0  0
   -1.0229   22.5491   29.4939 C   0  0  0  0  0  0  0  0  0  0  0  0
   -2.4776   22.9790   29.6766 C   0  0  0  0  0  0  0  0  0  0  0  0
    1.1013   23.0066   36.2525 C   0  0  0  0  0  0  0  0  0  0  0  0
   -0.1801   23.4595   36.1956 F   0  0  0  0  0  0  0  0  0  0  0  0
    1.8134   24.0266   36.8093 F   0  0  0  0  0  0  0  0  0  0  0  0
    1.1256   22.0012   37.1645 F   0  0  0  0  0  0  0  0  0  0  0  0
    3.9520   22.3502   35.7806 N   0  0  0  0  0  0  0  0  0  0  0  0
    4.0817   21.3562   36.5057 O   0  0  0  0  0  0  0  0  0  0  0  0
    4.5969   23.4004   35.8681 O   0  0  0  0  0  0  0  0  0  0  0  0
    2.9424   21.4608   31.4026 H   0  0  0  0  0  0  0  0  0  0  0  0
    4.4954   21.5881   33.3008 H   0  0  0  0  0  0  0  0  0  0  0  0
   -0.2910   22.7843   33.9143 H   0  0  0  0  0  0  0  0  0  0  0  0
   -1.2528   20.5042   30.2844 H   0  0  0  0  0  0  0  0  0  0  0  0
   -1.5993   20.6859   28.5746 H   0  0  0  0  0  0  0  0  0  0  0  0
    0.0687   20.6930   29.0859 H   0  0  0  0  0  0  0  0  0  0  0  0
   -0.6268   22.9932   28.5727 H   0  0  0  0  0  0  0  0  0  0  0  0
   -2.8985   22.5648   30.5995 H   0  0  0  0  0  0  0  0  0  0  0  0
   -2.5539   24.0696   29.7426 H   0  0  0  0  0  0  0  0  0  0  0  0
   -3.0951   22.6468   28.8359 H   0  0  0  0  0  0  0  0  0  0  0  0
 11 12  1  0
 12 13  1  0
 12  7  1  0
  7  8  2  0
  7  9  1  0
  9  1  1  0
  1  2  2  0
  2  3  1  0
  3  4  2  0
  4 18  1  0
 18 19  2  0
 18 20  1  0
  4  5  1  0
  5 14  1  0
 14 15  1  0
 14 16  1  0
 14 17  1  0
  5  6  2  0
  6  1  1  0
  9 10  1  0
  2 21  1  0
  3 22  1  0
  6 23  1  0
 11 24  1  0
 11 25  1  0
 11 26  1  0
 12 27  1  0
 13 28  1  0
 13 29  1  0
 13 30  1  0
M  CHG  2  18   1  20  -1
M  END
>  <minimizedAffinity>  (1) 
-7.21130

$$$$
