
     RDKit          3D

 30 30  0  0  0  0  0  0  0  0999 V2000
    0.5702   22.4382   33.6978 C   0  0  0  0  0  0  0  0  0  0  0  0
   -0.2075   22.1299   34.8213 C   0  0  0  0  0  0  0  0  0  0  0  0
    0.3852   21.9617   36.0739 C   0  0  0  0  0  0  0  0  0  0  0  0
    1.7721   22.1072   36.2035 C   0  0  0  0  0  0  0  0  0  0  0  0
    2.5795   22.4376   35.1065 C   0  0  0  0  0  0  0  0  0  0  0  0
    1.9541   22.5896   33.8505 C   0  0  0  0  0  0  0  0  0  0  0  0
   -0.3442   23.7543   31.7656 C   0  0  0  0  0  0  0  0  0  0  0  0
    0.0303   24.8744   32.0940 O   0  0  0  0  0  0  0  0  0  0  0  0
   -0.1099   22.5835   32.4716 N   0  0  0  0  0  0  0  0  0  0  0  0
   -0.9411   22.0025   32.4455 H   0  0  0  0  0  0  0  0  0  0  0  0
   -0.9639   22.0735   30.0000 C   0  0  0  0  0  0  0  0  0  0  0  0
   -1.1461   23.5116   30.4825 C   0  0  0  0  0  0  0  0  0  0  0  0
   -2.6289   23.8130   30.6943 C   0  0  0  0  0  0  0  0  0  0  0  0
    4.0683   22.6331   35.2300 C   0  0  0  0  0  0  0  0  0  0  0  0
    4.3972   23.6942   36.0149 F   0  0  0  0  0  0  0  0  0  0  0  0
    4.6719   22.8774   34.0326 F   0  0  0  0  0  0  0  0  0  0  0  0
    4.7012   21.5483   35.7455 F   0  0  0  0  0  0  0  0  0  0  0  0
    2.3472   21.8879   37.5240 N   0  0  0  0  0  0  0  0  0  0  0  0
    2.4171   22.8681   38.2757 O   0  0  0  0  0  0  0  0  0  0  0  0
    2.6886   20.7339   37.8039 O   0  0  0  0  0  0  0  0  0  0  0  0
   -1.2876   22.0257   34.7388 H   0  0  0  0  0  0  0  0  0  0  0  0
   -0.2321   21.7174   36.9365 H   0  0  0  0  0  0  0  0  0  0  0  0
    2.5470   22.8511   32.9730 H   0  0  0  0  0  0  0  0  0  0  0  0
   -1.5104   21.3425   30.6056 H   0  0  0  0  0  0  0  0  0  0  0  0
   -1.3517   21.9786   28.9787 H   0  0  0  0  0  0  0  0  0  0  0  0
    0.0926   21.7847   29.9686 H   0  0  0  0  0  0  0  0  0  0  0  0
   -0.7374   24.1857   29.7198 H   0  0  0  0  0  0  0  0  0  0  0  0
   -3.0600   23.1676   31.4675 H   0  0  0  0  0  0  0  0  0  0  0  0
   -2.7678   24.8496   31.0197 H   0  0  0  0  0  0  0  0  0  0  0  0
   -3.1946   23.6676   29.7684 H   0  0  0  0  0  0  0  0  0  0  0  0
 11 12  1  0
 12 13  1  0
 12  7  1  0
  7  8  2  0
  7  9  1  0
  9  1  1  0
  1  2  2  0
  2  3  1  0
  3  4  2  0
  4 18  1  0
 18 19  2  0
 18 20  1  0
  4  5  1  0
  5 14  1  0
 14 15  1  0
 14 16  1  0
 14 17  1  0
  5  6  2  0
  6  1  1  0
  9 10  1  0
  2 21  1  0
  3 22  1  0
  6 23  1  0
 11 24  1  0
 11 25  1  0
 11 26  1  0
 12 27  1  0
 13 28  1  0
 13 29  1  0
 13 30  1  0
M  CHG  2  18   1  20  -1
M  END
>  <minimizedAffinity>  (1) 
-7.01334

$$$$
