
     RDKit          3D

 30 30  0  0  0  0  0  0  0  0999 V2000
    1.0749   21.9360   32.6716 C   0  0  0  0  0  0  0  0  0  0  0  0
    0.6846   22.2411   33.9818 C   0  0  0  0  0  0  0  0  0  0  0  0
    1.6377   22.4209   34.9857 C   0  0  0  0  0  0  0  0  0  0  0  0
    2.9973   22.2970   34.6732 C   0  0  0  0  0  0  0  0  0  0  0  0
    3.4263   22.0152   33.3690 C   0  0  0  0  0  0  0  0  0  0  0  0
    2.4399   21.8267   32.3775 C   0  0  0  0  0  0  0  0  0  0  0  0
   -0.4433   22.7008   30.8244 C   0  0  0  0  0  0  0  0  0  0  0  0
   -0.0348   23.8493   30.6950 O   0  0  0  0  0  0  0  0  0  0  0  0
    0.0463   21.7644   31.7230 N   0  0  0  0  0  0  0  0  0  0  0  0
   -0.7213   21.2123   32.0933 H   0  0  0  0  0  0  0  0  0  0  0  0
   -2.5269   23.2717   29.5363 C   0  0  0  0  0  0  0  0  0  0  0  0
   -1.5885   22.1468   29.9702 C   0  0  0  0  0  0  0  0  0  0  0  0
   -1.0538   21.4048   28.7463 C   0  0  0  0  0  0  0  0  0  0  0  0
    4.8844   21.9120   33.0036 C   0  0  0  0  0  0  0  0  0  0  0  0
    5.5422   23.0968   33.1211 F   0  0  0  0  0  0  0  0  0  0  0  0
    5.0808   21.5241   31.7119 F   0  0  0  0  0  0  0  0  0  0  0  0
    5.5555   21.0095   33.7640 F   0  0  0  0  0  0  0  0  0  0  0  0
    3.9514   22.4595   35.7622 N   0  0  0  0  0  0  0  0  0  0  0  0
    4.4199   23.5916   35.9339 O   0  0  0  0  0  0  0  0  0  0  0  0
    4.1926   21.4629   36.4516 O   0  0  0  0  0  0  0  0  0  0  0  0
   -0.3684   22.3540   34.2329 H   0  0  0  0  0  0  0  0  0  0  0  0
    1.3179   22.6531   35.9999 H   0  0  0  0  0  0  0  0  0  0  0  0
    2.7331   21.6094   31.3496 H   0  0  0  0  0  0  0  0  0  0  0  0
   -2.9026   23.8210   30.4065 H   0  0  0  0  0  0  0  0  0  0  0  0
   -2.0186   23.9910   28.8846 H   0  0  0  0  0  0  0  0  0  0  0  0
   -3.3883   22.8715   28.9914 H   0  0  0  0  0  0  0  0  0  0  0  0
   -2.1742   21.4462   30.5783 H   0  0  0  0  0  0  0  0  0  0  0  0
   -0.4083   20.5730   29.0481 H   0  0  0  0  0  0  0  0  0  0  0  0
   -1.8728   20.9975   28.1447 H   0  0  0  0  0  0  0  0  0  0  0  0
   -0.4567   22.0686   28.1114 H   0  0  0  0  0  0  0  0  0  0  0  0
 11 12  1  0
 12 13  1  0
 12  7  1  0
  7  8  2  0
  7  9  1  0
  9  1  1  0
  1  2  2  0
  2  3  1  0
  3  4  2  0
  4 18  1  0
 18 19  2  0
 18 20  1  0
  4  5  1  0
  5 14  1  0
 14 15  1  0
 14 16  1  0
 14 17  1  0
  5  6  2  0
  6  1  1  0
  9 10  1  0
  2 21  1  0
  3 22  1  0
  6 23  1  0
 11 24  1  0
 11 25  1  0
 11 26  1  0
 12 27  1  0
 13 28  1  0
 13 29  1  0
 13 30  1  0
M  CHG  2  18   1  20  -1
M  END
>  <minimizedAffinity>  (1) 
-6.97721

$$$$
