
     RDKit          3D

 34 36  0  0  0  0  0  0  0  0999 V2000
    2.1826   22.9679   33.4166 C   0  0  0  0  0  0  0  0  0  0  0  0
    3.5243   23.3120   33.6369 C   0  0  0  0  0  0  0  0  0  0  0  0
    4.4163   23.7853   32.7149 O   0  0  0  0  0  0  0  0  0  0  0  0
    5.5972   23.9876   33.3495 C   0  0  0  0  0  0  0  0  0  0  0  0
    5.4936   23.6530   34.6776 C   0  0  0  0  0  0  0  0  0  0  0  0
    4.1569   23.2136   34.8775 C   0  0  0  0  0  0  0  0  0  0  0  0
    3.4262   22.7439   35.9862 C   0  0  0  0  0  0  0  0  0  0  0  0
    2.0828   22.3872   35.8114 C   0  0  0  0  0  0  0  0  0  0  0  0
    1.2879   21.8960   36.9274 C   0  0  0  0  0  0  0  0  0  0  0  0
    0.0090   21.5605   36.7352 C   0  0  0  0  0  0  0  0  0  0  0  0
   -0.6469   21.6660   35.4214 C   0  0  0  0  0  0  0  0  0  0  0  0
   -1.8217   21.3461   35.2837 O   0  0  0  0  0  0  0  0  0  0  0  0
    0.1306   22.1379   34.3767 O   0  0  0  0  0  0  0  0  0  0  0  0
    1.4922   22.5024   34.5503 C   0  0  0  0  0  0  0  0  0  0  0  0
    1.4674   23.0291   32.2343 O   0  0  0  0  0  0  0  0  0  0  0  0
    1.9931   22.3007   31.1249 C   0  0  0  0  0  0  0  0  0  0  0  0
    0.1555   19.7615   30.7816 C   0  0  0  0  0  0  0  0  0  0  0  0
    0.0757   21.0310   29.9802 C   0  0  0  0  0  0  0  0  0  0  0  0
   -0.9943   21.0263   28.9193 C   0  0  0  0  0  0  0  0  0  0  0  0
    0.8641   22.1111   30.1515 C   0  0  0  0  0  0  0  0  0  0  0  0
    6.3998   24.3671   32.7322 H   0  0  0  0  0  0  0  0  0  0  0  0
    6.2828   23.7181   35.4130 H   0  0  0  0  0  0  0  0  0  0  0  0
    3.9073   22.6640   36.9569 H   0  0  0  0  0  0  0  0  0  0  0  0
    1.7455   21.8090   37.9069 H   0  0  0  0  0  0  0  0  0  0  0  0
   -0.6131   21.1924   37.5419 H   0  0  0  0  0  0  0  0  0  0  0  0
    2.4184   21.3448   31.4485 H   0  0  0  0  0  0  0  0  0  0  0  0
    2.7890   22.8833   30.6477 H   0  0  0  0  0  0  0  0  0  0  0  0
    0.8706   19.8199   31.6059 H   0  0  0  0  0  0  0  0  0  0  0  0
   -0.8211   19.5314   31.2209 H   0  0  0  0  0  0  0  0  0  0  0  0
    0.4508   18.9265   30.1381 H   0  0  0  0  0  0  0  0  0  0  0  0
   -1.9801   20.8891   29.3757 H   0  0  0  0  0  0  0  0  0  0  0  0
   -1.0194   21.9606   28.3487 H   0  0  0  0  0  0  0  0  0  0  0  0
   -0.8214   20.2094   28.2110 H   0  0  0  0  0  0  0  0  0  0  0  0
    0.6869   22.9862   29.5277 H   0  0  0  0  0  0  0  0  0  0  0  0
 17 18  1  0
 18 19  1  0
 18 20  2  3
 20 16  1  0
 16 15  1  0
 15  1  1  0
  1  2  2  0
  2  3  1  0
  3  4  1  0
  4  5  2  0
  5  6  1  0
  6  7  2  0
  7  8  1  0
  8  9  1  0
  9 10  2  0
 10 11  1  0
 11 12  2  0
 11 13  1  0
 13 14  1  0
 14  1  1  0
  6  2  1  0
 14  8  2  0
  4 21  1  0
  5 22  1  0
  7 23  1  0
  9 24  1  0
 10 25  1  0
 16 26  1  0
 16 27  1  0
 17 28  1  0
 17 29  1  0
 17 30  1  0
 19 31  1  0
 19 32  1  0
 19 33  1  0
 20 34  1  0
M  END
>  <minimizedAffinity>  (1) 
-8.41618

$$$$
