
     RDKit          3D

 34 36  0  0  0  0  0  0  0  0999 V2000
    2.3070   23.6203   33.7305 C   0  0  0  0  0  0  0  0  0  0  0  0
    1.7729   23.8123   32.4480 C   0  0  0  0  0  0  0  0  0  0  0  0
    2.3553   24.4739   31.4027 O   0  0  0  0  0  0  0  0  0  0  0  0
    1.4986   24.4225   30.3530 C   0  0  0  0  0  0  0  0  0  0  0  0
    0.3594   23.7354   30.6948 C   0  0  0  0  0  0  0  0  0  0  0  0
    0.5233   23.3349   32.0485 C   0  0  0  0  0  0  0  0  0  0  0  0
   -0.2646   22.6170   32.9692 C   0  0  0  0  0  0  0  0  0  0  0  0
    0.2292   22.4030   34.2625 C   0  0  0  0  0  0  0  0  0  0  0  0
   -0.5492   21.6675   35.2483 C   0  0  0  0  0  0  0  0  0  0  0  0
   -0.0574   21.4779   36.4760 C   0  0  0  0  0  0  0  0  0  0  0  0
    1.2610   21.9883   36.8868 C   0  0  0  0  0  0  0  0  0  0  0  0
    1.6772   21.7965   38.0232 O   0  0  0  0  0  0  0  0  0  0  0  0
    1.9824   22.6829   35.9298 O   0  0  0  0  0  0  0  0  0  0  0  0
    1.4860   22.9002   34.6170 C   0  0  0  0  0  0  0  0  0  0  0  0
    3.5267   24.0497   34.2217 O   0  0  0  0  0  0  0  0  0  0  0  0
    4.6851   23.7006   33.4642 C   0  0  0  0  0  0  0  0  0  0  0  0
    4.1433   21.0719   31.8095 C   0  0  0  0  0  0  0  0  0  0  0  0
    4.8115   21.1538   33.1538 C   0  0  0  0  0  0  0  0  0  0  0  0
    5.2289   19.8209   33.7191 C   0  0  0  0  0  0  0  0  0  0  0  0
    5.0449   22.2908   33.8396 C   0  0  0  0  0  0  0  0  0  0  0  0
    1.8361   24.9134   29.4506 H   0  0  0  0  0  0  0  0  0  0  0  0
   -0.4869   23.5467   30.0498 H   0  0  0  0  0  0  0  0  0  0  0  0
   -1.2388   22.2410   32.6702 H   0  0  0  0  0  0  0  0  0  0  0  0
   -1.5244   21.2809   34.9728 H   0  0  0  0  0  0  0  0  0  0  0  0
   -0.6083   20.9365   37.2353 H   0  0  0  0  0  0  0  0  0  0  0  0
    5.4976   24.3681   33.7714 H   0  0  0  0  0  0  0  0  0  0  0  0
    4.5506   23.8516   32.3910 H   0  0  0  0  0  0  0  0  0  0  0  0
    3.1811   20.5570   31.8984 H   0  0  0  0  0  0  0  0  0  0  0  0
    3.9617   22.0477   31.3560 H   0  0  0  0  0  0  0  0  0  0  0  0
    4.7718   20.5095   31.1106 H   0  0  0  0  0  0  0  0  0  0  0  0
    5.7046   19.9154   34.7010 H   0  0  0  0  0  0  0  0  0  0  0  0
    4.3563   19.1695   33.8344 H   0  0  0  0  0  0  0  0  0  0  0  0
    5.9435   19.3315   33.0494 H   0  0  0  0  0  0  0  0  0  0  0  0
    5.5193   22.2180   34.8179 H   0  0  0  0  0  0  0  0  0  0  0  0
 17 18  1  0
 18 19  1  0
 18 20  2  3
 20 16  1  0
 16 15  1  0
 15  1  1  0
  1  2  2  0
  2  3  1  0
  3  4  1  0
  4  5  2  0
  5  6  1  0
  6  7  2  0
  7  8  1  0
  8  9  1  0
  9 10  2  0
 10 11  1  0
 11 12  2  0
 11 13  1  0
 13 14  1  0
 14  1  1  0
  6  2  1  0
 14  8  2  0
  4 21  1  0
  5 22  1  0
  7 23  1  0
  9 24  1  0
 10 25  1  0
 16 26  1  0
 16 27  1  0
 17 28  1  0
 17 29  1  0
 17 30  1  0
 19 31  1  0
 19 32  1  0
 19 33  1  0
 20 34  1  0
M  END
>  <minimizedAffinity>  (1) 
-8.40210

$$$$
