
     RDKit          3D

 34 36  0  0  0  0  0  0  0  0999 V2000
    1.0376   21.9186   33.5880 C   0  0  0  0  0  0  0  0  0  0  0  0
    0.0477   21.7532   34.5676 C   0  0  0  0  0  0  0  0  0  0  0  0
   -1.1914   21.1991   34.4025 O   0  0  0  0  0  0  0  0  0  0  0  0
   -1.8232   21.2364   35.6016 C   0  0  0  0  0  0  0  0  0  0  0  0
   -1.0152   21.8085   36.5538 C   0  0  0  0  0  0  0  0  0  0  0  0
    0.1990   22.1481   35.8981 C   0  0  0  0  0  0  0  0  0  0  0  0
    1.4063   22.7500   36.3032 C   0  0  0  0  0  0  0  0  0  0  0  0
    2.4223   22.9363   35.3569 C   0  0  0  0  0  0  0  0  0  0  0  0
    3.6866   23.5544   35.7286 C   0  0  0  0  0  0  0  0  0  0  0  0
    4.6398   23.7228   34.8076 C   0  0  0  0  0  0  0  0  0  0  0  0
    4.4678   23.3045   33.4066 C   0  0  0  0  0  0  0  0  0  0  0  0
    5.3645   23.4781   32.5897 O   0  0  0  0  0  0  0  0  0  0  0  0
    3.2567   22.7173   33.0793 O   0  0  0  0  0  0  0  0  0  0  0  0
    2.2250   22.5249   34.0362 C   0  0  0  0  0  0  0  0  0  0  0  0
    0.9863   21.5632   32.2523 O   0  0  0  0  0  0  0  0  0  0  0  0
    0.0122   22.2259   31.4463 C   0  0  0  0  0  0  0  0  0  0  0  0
    0.6763   25.2637   31.9681 C   0  0  0  0  0  0  0  0  0  0  0  0
    1.0415   24.4720   30.7433 C   0  0  0  0  0  0  0  0  0  0  0  0
    1.7830   25.2609   29.6953 C   0  0  0  0  0  0  0  0  0  0  0  0
    0.7583   23.1689   30.5451 C   0  0  0  0  0  0  0  0  0  0  0  0
   -2.8227   20.8240   35.6155 H   0  0  0  0  0  0  0  0  0  0  0  0
   -1.2680   21.9617   37.5933 H   0  0  0  0  0  0  0  0  0  0  0  0
    1.5363   23.0605   37.3360 H   0  0  0  0  0  0  0  0  0  0  0  0
    3.8408   23.8713   36.7544 H   0  0  0  0  0  0  0  0  0  0  0  0
    5.5930   24.1779   35.0476 H   0  0  0  0  0  0  0  0  0  0  0  0
   -0.7530   22.7387   32.0393 H   0  0  0  0  0  0  0  0  0  0  0  0
   -0.5023   21.4714   30.8418 H   0  0  0  0  0  0  0  0  0  0  0  0
    0.1127   24.6840   32.7025 H   0  0  0  0  0  0  0  0  0  0  0  0
    1.5816   25.6316   32.4622 H   0  0  0  0  0  0  0  0  0  0  0  0
    0.0596   26.1249   31.6902 H   0  0  0  0  0  0  0  0  0  0  0  0
    2.7195   25.6506   30.1078 H   0  0  0  0  0  0  0  0  0  0  0  0
    2.0330   24.6558   28.8175 H   0  0  0  0  0  0  0  0  0  0  0  0
    1.1741   26.1047   29.3545 H   0  0  0  0  0  0  0  0  0  0  0  0
    1.1088   22.6971   29.6280 H   0  0  0  0  0  0  0  0  0  0  0  0
 17 18  1  0
 18 19  1  0
 18 20  2  3
 20 16  1  0
 16 15  1  0
 15  1  1  0
  1  2  2  0
  2  3  1  0
  3  4  1  0
  4  5  2  0
  5  6  1  0
  6  7  2  0
  7  8  1  0
  8  9  1  0
  9 10  2  0
 10 11  1  0
 11 12  2  0
 11 13  1  0
 13 14  1  0
 14  1  1  0
  6  2  1  0
 14  8  2  0
  4 21  1  0
  5 22  1  0
  7 23  1  0
  9 24  1  0
 10 25  1  0
 16 26  1  0
 16 27  1  0
 17 28  1  0
 17 29  1  0
 17 30  1  0
 19 31  1  0
 19 32  1  0
 19 33  1  0
 20 34  1  0
M  END
>  <minimizedAffinity>  (1) 
-8.35087

$$$$
