


 20 22  0  0  0  0  0  0  0  0999 V2000
    2.1826   22.9679   33.4166 C   0  0  0  0  0  0  0  0  0  0  0  0
    3.5243   23.3120   33.6369 C   0  0  0  0  0  0  0  0  0  0  0  0
    4.4163   23.7853   32.7149 O   0  0  0  0  0  0  0  0  0  0  0  0
    5.5972   23.9876   33.3495 C   0  0  0  0  0  0  0  0  0  0  0  0
    5.4936   23.6530   34.6776 C   0  0  0  0  0  0  0  0  0  0  0  0
    4.1569   23.2136   34.8775 C   0  0  0  0  0  0  0  0  0  0  0  0
    3.4262   22.7439   35.9862 C   0  0  0  0  0  0  0  0  0  0  0  0
    2.0828   22.3872   35.8114 C   0  0  0  0  0  0  0  0  0  0  0  0
    1.2879   21.8960   36.9274 C   0  0  0  0  0  0  0  0  0  0  0  0
    0.0090   21.5605   36.7352 C   0  0  0  0  0  0  0  0  0  0  0  0
   -0.6469   21.6660   35.4214 C   0  0  0  0  0  0  0  0  0  0  0  0
   -1.8217   21.3461   35.2837 O   0  0  0  0  0  0  0  0  0  0  0  0
    0.1306   22.1379   34.3767 O   0  0  0  0  0  0  0  0  0  0  0  0
    1.4922   22.5024   34.5503 C   0  0  0  0  0  0  0  0  0  0  0  0
    1.4674   23.0291   32.2343 O   0  0  0  0  0  0  0  0  0  0  0  0
    1.9931   22.3007   31.1249 C   0  0  0  0  0  0  0  0  0  0  0  0
    0.1555   19.7615   30.7816 C   0  0  0  0  0  0  0  0  0  0  0  0
    0.0757   21.0310   29.9802 C   0  0  0  0  0  0  0  0  0  0  0  0
   -0.9943   21.0263   28.9193 C   0  0  0  0  0  0  0  0  0  0  0  0
    0.8641   22.1111   30.1515 C   0  0  0  0  0  0  0  0  0  0  0  0
 17 18  1  0  0  0
 18 19  1  0  0  0
 18 20  2  0  0  0
 20 16  1  0  0  0
 16 15  1  0  0  0
 15  1  1  0  0  0
  1  2  2  0  0  0
  2  3  1  0  0  0
  3  4  1  0  0  0
  4  5  2  0  0  0
  5  6  1  0  0  0
  6  7  2  0  0  0
  7  8  1  0  0  0
  8  9  1  0  0  0
  9 10  2  0  0  0
 10 11  1  0  0  0
 11 12  2  0  0  0
 11 13  1  0  0  0
 13 14  1  0  0  0
 14  1  1  0  0  0
  6  2  1  0  0  0
 14  8  2  0  0  0
M  END
> <minimizedAffinity>
-8.41618

$$$$



 20 22  0  0  0  0  0  0  0  0999 V2000
    2.3070   23.6203   33.7305 C   0  0  0  0  0  0  0  0  0  0  0  0
    1.7729   23.8123   32.4480 C   0  0  0  0  0  0  0  0  0  0  0  0
    2.3553   24.4739   31.4027 O   0  0  0  0  0  0  0  0  0  0  0  0
    1.4986   24.4225   30.3530 C   0  0  0  0  0  0  0  0  0  0  0  0
    0.3594   23.7354   30.6948 C   0  0  0  0  0  0  0  0  0  0  0  0
    0.5233   23.3349   32.0485 C   0  0  0  0  0  0  0  0  0  0  0  0
   -0.2646   22.6170   32.9692 C   0  0  0  0  0  0  0  0  0  0  0  0
    0.2292   22.4030   34.2625 C   0  0  0  0  0  0  0  0  0  0  0  0
   -0.5492   21.6675   35.2483 C   0  0  0  0  0  0  0  0  0  0  0  0
   -0.0574   21.4779   36.4760 C   0  0  0  0  0  0  0  0  0  0  0  0
    1.2610   21.9883   36.8868 C   0  0  0  0  0  0  0  0  0  0  0  0
    1.6772   21.7965   38.0232 O   0  0  0  0  0  0  0  0  0  0  0  0
    1.9824   22.6829   35.9298 O   0  0  0  0  0  0  0  0  0  0  0  0
    1.4860   22.9002   34.6170 C   0  0  0  0  0  0  0  0  0  0  0  0
    3.5267   24.0497   34.2217 O   0  0  0  0  0  0  0  0  0  0  0  0
    4.6851   23.7006   33.4642 C   0  0  0  0  0  0  0  0  0  0  0  0
    4.1433   21.0719   31.8095 C   0  0  0  0  0  0  0  0  0  0  0  0
    4.8115   21.1538   33.1538 C   0  0  0  0  0  0  0  0  0  0  0  0
    5.2289   19.8209   33.7191 C   0  0  0  0  0  0  0  0  0  0  0  0
    5.0449   22.2908   33.8396 C   0  0  0  0  0  0  0  0  0  0  0  0
 17 18  1  0  0  0
 18 19  1  0  0  0
 18 20  2  0  0  0
 20 16  1  0  0  0
 16 15  1  0  0  0
 15  1  1  0  0  0
  1  2  2  0  0  0
  2  3  1  0  0  0
  3  4  1  0  0  0
  4  5  2  0  0  0
  5  6  1  0  0  0
  6  7  2  0  0  0
  7  8  1  0  0  0
  8  9  1  0  0  0
  9 10  2  0  0  0
 10 11  1  0  0  0
 11 12  2  0  0  0
 11 13  1  0  0  0
 13 14  1  0  0  0
 14  1  1  0  0  0
  6  2  1  0  0  0
 14  8  2  0  0  0
M  END
> <minimizedAffinity>
-8.40210

$$$$



 20 22  0  0  0  0  0  0  0  0999 V2000
    1.0376   21.9186   33.5880 C   0  0  0  0  0  0  0  0  0  0  0  0
    0.0477   21.7532   34.5676 C   0  0  0  0  0  0  0  0  0  0  0  0
   -1.1914   21.1991   34.4025 O   0  0  0  0  0  0  0  0  0  0  0  0
   -1.8232   21.2364   35.6016 C   0  0  0  0  0  0  0  0  0  0  0  0
   -1.0152   21.8085   36.5538 C   0  0  0  0  0  0  0  0  0  0  0  0
    0.1990   22.1481   35.8981 C   0  0  0  0  0  0  0  0  0  0  0  0
    1.4063   22.7500   36.3032 C   0  0  0  0  0  0  0  0  0  0  0  0
    2.4223   22.9363   35.3569 C   0  0  0  0  0  0  0  0  0  0  0  0
    3.6866   23.5544   35.7286 C   0  0  0  0  0  0  0  0  0  0  0  0
    4.6398   23.7228   34.8076 C   0  0  0  0  0  0  0  0  0  0  0  0
    4.4678   23.3045   33.4066 C   0  0  0  0  0  0  0  0  0  0  0  0
    5.3645   23.4781   32.5897 O   0  0  0  0  0  0  0  0  0  0  0  0
    3.2567   22.7173   33.0793 O   0  0  0  0  0  0  0  0  0  0  0  0
    2.2250   22.5249   34.0362 C   0  0  0  0  0  0  0  0  0  0  0  0
    0.9863   21.5632   32.2523 O   0  0  0  0  0  0  0  0  0  0  0  0
    0.0122   22.2259   31.4463 C   0  0  0  0  0  0  0  0  0  0  0  0
    0.6763   25.2637   31.9681 C   0  0  0  0  0  0  0  0  0  0  0  0
    1.0415   24.4720   30.7433 C   0  0  0  0  0  0  0  0  0  0  0  0
    1.7830   25.2609   29.6953 C   0  0  0  0  0  0  0  0  0  0  0  0
    0.7583   23.1689   30.5451 C   0  0  0  0  0  0  0  0  0  0  0  0
 17 18  1  0  0  0
 18 19  1  0  0  0
 18 20  2  0  0  0
 20 16  1  0  0  0
 16 15  1  0  0  0
 15  1  1  0  0  0
  1  2  2  0  0  0
  2  3  1  0  0  0
  3  4  1  0  0  0
  4  5  2  0  0  0
  5  6  1  0  0  0
  6  7  2  0  0  0
  7  8  1  0  0  0
  8  9  1  0  0  0
  9 10  2  0  0  0
 10 11  1  0  0  0
 11 12  2  0  0  0
 11 13  1  0  0  0
 13 14  1  0  0  0
 14  1  1  0  0  0
  6  2  1  0  0  0
 14  8  2  0  0  0
M  END
> <minimizedAffinity>
-8.35087

$$$$



 20 22  0  0  0  0  0  0  0  0999 V2000
    2.2761   22.8992   33.5601 C   0  0  0  0  0  0  0  0  0  0  0  0
    3.3808   22.0572   33.7539 C   0  0  0  0  0  0  0  0  0  0  0  0
    4.3778   22.2044   34.6780 O   0  0  0  0  0  0  0  0  0  0  0  0
    5.2419   21.1714   34.5207 C   0  0  0  0  0  0  0  0  0  0  0  0
    4.8260   20.3463   33.5044 C   0  0  0  0  0  0  0  0  0  0  0  0
    3.6224   20.9081   32.9987 C   0  0  0  0  0  0  0  0  0  0  0  0
    2.7190   20.5542   31.9777 C   0  0  0  0  0  0  0  0  0  0  0  0
    1.6020   21.3679   31.7482 C   0  0  0  0  0  0  0  0  0  0  0  0
    0.6416   21.0429   30.7040 C   0  0  0  0  0  0  0  0  0  0  0  0
   -0.4150   21.8355   30.5032 C   0  0  0  0  0  0  0  0  0  0  0  0
   -0.6581   23.0465   31.3043 C   0  0  0  0  0  0  0  0  0  0  0  0
   -1.6377   23.7504   31.0887 O   0  0  0  0  0  0  0  0  0  0  0  0
    0.2693   23.3323   32.2928 O   0  0  0  0  0  0  0  0  0  0  0  0
    1.4018   22.5088   32.5297 C   0  0  0  0  0  0  0  0  0  0  0  0
    1.9487   24.0524   34.2502 O   0  0  0  0  0  0  0  0  0  0  0  0
    1.8725   23.9525   35.6721 C   0  0  0  0  0  0  0  0  0  0  0  0
    1.8556   21.3427   37.4415 C   0  0  0  0  0  0  0  0  0  0  0  0
    0.6746   21.9407   36.7287 C   0  0  0  0  0  0  0  0  0  0  0  0
   -0.6082   21.1697   36.9029 C   0  0  0  0  0  0  0  0  0  0  0  0
    0.7008   23.0657   35.9863 C   0  0  0  0  0  0  0  0  0  0  0  0
 17 18  1  0  0  0
 18 19  1  0  0  0
 18 20  2  0  0  0
 20 16  1  0  0  0
 16 15  1  0  0  0
 15  1  1  0  0  0
  1  2  2  0  0  0
  2  3  1  0  0  0
  3  4  1  0  0  0
  4  5  2  0  0  0
  5  6  1  0  0  0
  6  7  2  0  0  0
  7  8  1  0  0  0
  8  9  1  0  0  0
  9 10  2  0  0  0
 10 11  1  0  0  0
 11 12  2  0  0  0
 11 13  1  0  0  0
 13 14  1  0  0  0
 14  1  1  0  0  0
  6  2  1  0  0  0
 14  8  2  0  0  0
M  END
> <minimizedAffinity>
-8.30923

$$$$



 20 22  0  0  0  0  0  0  0  0999 V2000
    1.4588   23.0070   35.0001 C   0  0  0  0  0  0  0  0  0  0  0  0
    0.4024   22.2513   35.5292 C   0  0  0  0  0  0  0  0  0  0  0  0
    0.1694   21.9691   36.8467 O   0  0  0  0  0  0  0  0  0  0  0  0
   -0.9542   21.2133   36.9143 C   0  0  0  0  0  0  0  0  0  0  0  0
   -1.4634   20.9943   35.6575 C   0  0  0  0  0  0  0  0  0  0  0  0
   -0.5947   21.6603   34.7511 C   0  0  0  0  0  0  0  0  0  0  0  0
   -0.5583   21.8179   33.3519 C   0  0  0  0  0  0  0  0  0  0  0  0
    0.4804   22.5639   32.7801 C   0  0  0  0  0  0  0  0  0  0  0  0
    0.5600   22.7533   31.3391 C   0  0  0  0  0  0  0  0  0  0  0  0
    1.5613   23.4676   30.8174 C   0  0  0  0  0  0  0  0  0  0  0  0
    2.6089   24.0841   31.6480 C   0  0  0  0  0  0  0  0  0  0  0  0
    3.5134   24.7303   31.1324 O   0  0  0  0  0  0  0  0  0  0  0  0
    2.5091   23.8907   33.0159 O   0  0  0  0  0  0  0  0  0  0  0  0
    1.4566   23.1367   33.5995 C   0  0  0  0  0  0  0  0  0  0  0  0
    2.4892   23.6300   35.6809 O   0  0  0  0  0  0  0  0  0  0  0  0
    3.3239   22.7988   36.4871 C   0  0  0  0  0  0  0  0  0  0  0  0
    5.6157   23.2325   34.3655 C   0  0  0  0  0  0  0  0  0  0  0  0
    4.9032   21.9400   34.6522 C   0  0  0  0  0  0  0  0  0  0  0  0
    5.3616   20.7804   33.8063 C   0  0  0  0  0  0  0  0  0  0  0  0
    3.9332   21.7731   35.5735 C   0  0  0  0  0  0  0  0  0  0  0  0
 17 18  1  0  0  0
 18 19  1  0  0  0
 18 20  2  0  0  0
 20 16  1  0  0  0
 16 15  1  0  0  0
 15  1  1  0  0  0
  1  2  2  0  0  0
  2  3  1  0  0  0
  3  4  1  0  0  0
  4  5  2  0  0  0
  5  6  1  0  0  0
  6  7  2  0  0  0
  7  8  1  0  0  0
  8  9  1  0  0  0
  9 10  2  0  0  0
 10 11  1  0  0  0
 11 12  2  0  0  0
 11 13  1  0  0  0
 13 14  1  0  0  0
 14  1  1  0  0  0
  6  2  1  0  0  0
 14  8  2  0  0  0
M  END
> <minimizedAffinity>
-8.27599

$$$$



 20 22  0  0  0  0  0  0  0  0999 V2000
    1.9993   22.8786   32.7941 C   0  0  0  0  0  0  0  0  0  0  0  0
    1.3383   22.4489   31.6342 C   0  0  0  0  0  0  0  0  0  0  0  0
    1.7464   22.6212   30.3406 O   0  0  0  0  0  0  0  0  0  0  0  0
    0.8151   22.0537   29.5350 C   0  0  0  0  0  0  0  0  0  0  0  0
   -0.2011   21.5102   30.2825 C   0  0  0  0  0  0  0  0  0  0  0  0
    0.1245   21.7591   31.6433 C   0  0  0  0  0  0  0  0  0  0  0  0
   -0.4908   21.4672   32.8762 C   0  0  0  0  0  0  0  0  0  0  0  0
    0.1339   21.8793   34.0605 C   0  0  0  0  0  0  0  0  0  0  0  0
   -0.4644   21.6010   35.3578 C   0  0  0  0  0  0  0  0  0  0  0  0
    0.1498   22.0058   36.4731 C   0  0  0  0  0  0  0  0  0  0  0  0
    1.4286   22.7349   36.4510 C   0  0  0  0  0  0  0  0  0  0  0  0
    1.9605   23.0923   37.4955 O   0  0  0  0  0  0  0  0  0  0  0  0
    1.9778   22.9853   35.2043 O   0  0  0  0  0  0  0  0  0  0  0  0
    1.3486   22.5675   34.0017 C   0  0  0  0  0  0  0  0  0  0  0  0
    3.1970   23.5636   32.8914 O   0  0  0  0  0  0  0  0  0  0  0  0
    4.2637   23.1184   32.0537 C   0  0  0  0  0  0  0  0  0  0  0  0
    5.3094   21.9942   34.8078 C   0  0  0  0  0  0  0  0  0  0  0  0
    4.9931   21.1855   33.5804 C   0  0  0  0  0  0  0  0  0  0  0  0
    5.2292   19.7056   33.7372 C   0  0  0  0  0  0  0  0  0  0  0  0
    4.5347   21.6852   32.4152 C   0  0  0  0  0  0  0  0  0  0  0  0
 17 18  1  0  0  0
 18 19  1  0  0  0
 18 20  2  0  0  0
 20 16  1  0  0  0
 16 15  1  0  0  0
 15  1  1  0  0  0
  1  2  2  0  0  0
  2  3  1  0  0  0
  3  4  1  0  0  0
  4  5  2  0  0  0
  5  6  1  0  0  0
  6  7  2  0  0  0
  7  8  1  0  0  0
  8  9  1  0  0  0
  9 10  2  0  0  0
 10 11  1  0  0  0
 11 12  2  0  0  0
 11 13  1  0  0  0
 13 14  1  0  0  0
 14  1  1  0  0  0
  6  2  1  0  0  0
 14  8  2  0  0  0
M  END
> <minimizedAffinity>
-8.19813

$$$$



 20 22  0  0  0  0  0  0  0  0999 V2000
    1.9793   21.9737   32.8976 C   0  0  0  0  0  0  0  0  0  0  0  0
    3.2454   22.5753   32.9412 C   0  0  0  0  0  0  0  0  0  0  0  0
    4.1699   22.6251   31.9349 O   0  0  0  0  0  0  0  0  0  0  0  0
    5.2503   23.2994   32.4002 C   0  0  0  0  0  0  0  0  0  0  0  0
    5.0484   23.6937   33.7004 C   0  0  0  0  0  0  0  0  0  0  0  0
    3.7546   23.2312   34.0635 C   0  0  0  0  0  0  0  0  0  0  0  0
    2.9700   23.3053   35.2309 C   0  0  0  0  0  0  0  0  0  0  0  0
    1.6989   22.7165   35.2325 C   0  0  0  0  0  0  0  0  0  0  0  0
    0.8525   22.7669   36.4156 C   0  0  0  0  0  0  0  0  0  0  0  0
   -0.3553   22.1963   36.3930 C   0  0  0  0  0  0  0  0  0  0  0  0
   -0.8808   21.5050   35.2041 C   0  0  0  0  0  0  0  0  0  0  0  0
   -1.9931   20.9912   35.2225 O   0  0  0  0  0  0  0  0  0  0  0  0
   -0.0568   21.4729   34.0911 O   0  0  0  0  0  0  0  0  0  0  0  0
    1.2316   22.0703   34.0851 C   0  0  0  0  0  0  0  0  0  0  0  0
    1.3866   21.3047   31.8419 O   0  0  0  0  0  0  0  0  0  0  0  0
    1.2290   22.0334   30.6246 C   0  0  0  0  0  0  0  0  0  0  0  0
   -0.0654   24.7032   31.6915 C   0  0  0  0  0  0  0  0  0  0  0  0
   -0.7884   23.5770   31.0066 C   0  0  0  0  0  0  0  0  0  0  0  0
   -2.2715   23.7959   30.8549 C   0  0  0  0  0  0  0  0  0  0  0  0
   -0.2133   22.4478   30.5465 C   0  0  0  0  0  0  0  0  0  0  0  0
 17 18  1  0  0  0
 18 19  1  0  0  0
 18 20  2  0  0  0
 20 16  1  0  0  0
 16 15  1  0  0  0
 15  1  1  0  0  0
  1  2  2  0  0  0
  2  3  1  0  0  0
  3  4  1  0  0  0
  4  5  2  0  0  0
  5  6  1  0  0  0
  6  7  2  0  0  0
  7  8  1  0  0  0
  8  9  1  0  0  0
  9 10  2  0  0  0
 10 11  1  0  0  0
 11 12  2  0  0  0
 11 13  1  0  0  0
 13 14  1  0  0  0
 14  1  1  0  0  0
  6  2  1  0  0  0
 14  8  2  0  0  0
M  END
> <minimizedAffinity>
-8.16690

$$$$



 20 22  0  0  0  0  0  0  0  0999 V2000
    1.7651   22.5800   32.5497 C   0  0  0  0  0  0  0  0  0  0  0  0
    1.5609   23.4404   31.4612 C   0  0  0  0  0  0  0  0  0  0  0  0
    0.4612   23.4982   30.6506 O   0  0  0  0  0  0  0  0  0  0  0  0
    0.6789   24.4679   29.7283 C   0  0  0  0  0  0  0  0  0  0  0  0
    1.9085   25.0489   29.9217 C   0  0  0  0  0  0  0  0  0  0  0  0
    2.4906   24.3930   31.0401 C   0  0  0  0  0  0  0  0  0  0  0  0
    3.7111   24.5151   31.7325 C   0  0  0  0  0  0  0  0  0  0  0  0
    3.9579   23.6745   32.8255 C   0  0  0  0  0  0  0  0  0  0  0  0
    5.2048   23.7634   33.5711 C   0  0  0  0  0  0  0  0  0  0  0  0
    5.4176   22.9494   34.6090 C   0  0  0  0  0  0  0  0  0  0  0  0
    4.4307   21.9466   35.0423 C   0  0  0  0  0  0  0  0  0  0  0  0
    4.6631   21.2157   35.9980 O   0  0  0  0  0  0  0  0  0  0  0  0
    3.2519   21.8837   34.3177 O   0  0  0  0  0  0  0  0  0  0  0  0
    2.9972   22.7355   33.2102 C   0  0  0  0  0  0  0  0  0  0  0  0
    0.9125   21.6094   33.0438 O   0  0  0  0  0  0  0  0  0  0  0  0
   -0.4175   22.0203   33.3596 C   0  0  0  0  0  0  0  0  0  0  0  0
    0.5668   23.0234   36.1822 C   0  0  0  0  0  0  0  0  0  0  0  0
   -0.3278   21.8436   35.9207 C   0  0  0  0  0  0  0  0  0  0  0  0
   -0.7519   21.1020   37.1620 C   0  0  0  0  0  0  0  0  0  0  0  0
   -0.7473   21.4385   34.7052 C   0  0  0  0  0  0  0  0  0  0  0  0
 17 18  1  0  0  0
 18 19  1  0  0  0
 18 20  2  0  0  0
 20 16  1  0  0  0
 16 15  1  0  0  0
 15  1  1  0  0  0
  1  2  2  0  0  0
  2  3  1  0  0  0
  3  4  1  0  0  0
  4  5  2  0  0  0
  5  6  1  0  0  0
  6  7  2  0  0  0
  7  8  1  0  0  0
  8  9  1  0  0  0
  9 10  2  0  0  0
 10 11  1  0  0  0
 11 12  2  0  0  0
 11 13  1  0  0  0
 13 14  1  0  0  0
 14  1  1  0  0  0
  6  2  1  0  0  0
 14  8  2  0  0  0
M  END
> <minimizedAffinity>
-8.12427

$$$$



 20 22  0  0  0  0  0  0  0  0999 V2000
    2.2955   23.3788   33.1315 C   0  0  0  0  0  0  0  0  0  0  0  0
    1.9349   23.3180   34.4855 C   0  0  0  0  0  0  0  0  0  0  0  0
    2.5264   23.9779   35.5268 O   0  0  0  0  0  0  0  0  0  0  0  0
    1.8661   23.6358   36.6605 C   0  0  0  0  0  0  0  0  0  0  0  0
    0.8474   22.7586   36.3781 C   0  0  0  0  0  0  0  0  0  0  0  0
    0.8807   22.5438   34.9737 C   0  0  0  0  0  0  0  0  0  0  0  0
    0.1217   21.7706   34.0737 C   0  0  0  0  0  0  0  0  0  0  0  0
    0.4479   21.8000   32.7117 C   0  0  0  0  0  0  0  0  0  0  0  0
   -0.3073   21.0172   31.7445 C   0  0  0  0  0  0  0  0  0  0  0  0
    0.0242   21.0606   30.4509 C   0  0  0  0  0  0  0  0  0  0  0  0
    1.1399   21.8789   29.9480 C   0  0  0  0  0  0  0  0  0  0  0  0
    1.4154   21.8908   28.7540 O   0  0  0  0  0  0  0  0  0  0  0  0
    1.8411   22.6158   30.8882 O   0  0  0  0  0  0  0  0  0  0  0  0
    1.5122   22.5901   32.2695 C   0  0  0  0  0  0  0  0  0  0  0  0
    3.3157   24.1100   32.5505 O   0  0  0  0  0  0  0  0  0  0  0  0
    4.6372   23.8680   33.0328 C   0  0  0  0  0  0  0  0  0  0  0  0
    4.8735   21.5594   35.1675 C   0  0  0  0  0  0  0  0  0  0  0  0
    5.0524   21.4174   33.6815 C   0  0  0  0  0  0  0  0  0  0  0  0
    5.3869   20.0193   33.2298 C   0  0  0  0  0  0  0  0  0  0  0  0
    4.9348   22.4163   32.7838 C   0  0  0  0  0  0  0  0  0  0  0  0
 17 18  1  0  0  0
 18 19  1  0  0  0
 18 20  2  0  0  0
 20 16  1  0  0  0
 16 15  1  0  0  0
 15  1  1  0  0  0
  1  2  2  0  0  0
  2  3  1  0  0  0
  3  4  1  0  0  0
  4  5  2  0  0  0
  5  6  1  0  0  0
  6  7  2  0  0  0
  7  8  1  0  0  0
  8  9  1  0  0  0
  9 10  2  0  0  0
 10 11  1  0  0  0
 11 12  2  0  0  0
 11 13  1  0  0  0
 13 14  1  0  0  0
 14  1  1  0  0  0
  6  2  1  0  0  0
 14  8  2  0  0  0
M  END
> <minimizedAffinity>
-8.07411

$$$$



 20 22  0  0  0  0  0  0  0  0999 V2000
    1.0304   22.2529   33.3555 C   0  0  0  0  0  0  0  0  0  0  0  0
    0.3670   22.9614   32.3432 C   0  0  0  0  0  0  0  0  0  0  0  0
   -0.9783   22.9865   32.1000 O   0  0  0  0  0  0  0  0  0  0  0  0
   -1.1895   23.7943   31.0317 C   0  0  0  0  0  0  0  0  0  0  0  0
    0.0003   24.3010   30.5687 C   0  0  0  0  0  0  0  0  0  0  0  0
    1.0164   23.7696   31.4083 C   0  0  0  0  0  0  0  0  0  0  0  0
    2.4181   23.8957   31.4648 C   0  0  0  0  0  0  0  0  0  0  0  0
    3.1219   23.2041   32.4592 C   0  0  0  0  0  0  0  0  0  0  0  0
    4.5708   23.3030   32.5565 C   0  0  0  0  0  0  0  0  0  0  0  0
    5.2196   22.6324   33.5127 C   0  0  0  0  0  0  0  0  0  0  0  0
    4.5241   21.7809   34.4917 C   0  0  0  0  0  0  0  0  0  0  0  0
    5.1543   21.1789   35.3532 O   0  0  0  0  0  0  0  0  0  0  0  0
    3.1457   21.7053   34.3788 O   0  0  0  0  0  0  0  0  0  0  0  0
    2.4285   22.4065   33.3733 C   0  0  0  0  0  0  0  0  0  0  0  0
    0.4825   21.4314   34.3241 O   0  0  0  0  0  0  0  0  0  0  0  0
   -0.0953   22.0726   35.4610 C   0  0  0  0  0  0  0  0  0  0  0  0
    2.1759   23.9416   36.5970 C   0  0  0  0  0  0  0  0  0  0  0  0
    1.8000   22.5824   37.1182 C   0  0  0  0  0  0  0  0  0  0  0  0
    2.6298   22.1170   38.2867 C   0  0  0  0  0  0  0  0  0  0  0  0
    0.8161   21.8038   36.6250 C   0  0  0  0  0  0  0  0  0  0  0  0
 17 18  1  0  0  0
 18 19  1  0  0  0
 18 20  2  0  0  0
 20 16  1  0  0  0
 16 15  1  0  0  0
 15  1  1  0  0  0
  1  2  2  0  0  0
  2  3  1  0  0  0
  3  4  1  0  0  0
  4  5  2  0  0  0
  5  6  1  0  0  0
  6  7  2  0  0  0
  7  8  1  0  0  0
  8  9  1  0  0  0
  9 10  2  0  0  0
 10 11  1  0  0  0
 11 12  2  0  0  0
 11 13  1  0  0  0
 13 14  1  0  0  0
 14  1  1  0  0  0
  6  2  1  0  0  0
 14  8  2  0  0  0
M  END
> <minimizedAffinity>
-7.81867

$$$$



 20 22  0  0  0  0  0  0  0  0999 V2000
    1.6057   22.1794   32.8789 C   0  0  0  0  0  0  0  0  0  0  0  0
    1.0134   23.4004   32.5249 C   0  0  0  0  0  0  0  0  0  0  0  0
   -0.2497   23.5938   32.0382 O   0  0  0  0  0  0  0  0  0  0  0  0
   -0.4128   24.9236   31.8305 C   0  0  0  0  0  0  0  0  0  0  0  0
    0.7275   25.6079   32.1743 C   0  0  0  0  0  0  0  0  0  0  0  0
    1.6592   24.6341   32.6252 C   0  0  0  0  0  0  0  0  0  0  0  0
    2.9822   24.6800   33.1063 C   0  0  0  0  0  0  0  0  0  0  0  0
    3.6136   23.4837   33.4703 C   0  0  0  0  0  0  0  0  0  0  0  0
    4.9799   23.4814   33.9718 C   0  0  0  0  0  0  0  0  0  0  0  0
    5.5612   22.3272   34.3108 C   0  0  0  0  0  0  0  0  0  0  0  0
    4.8709   21.0317   34.1983 C   0  0  0  0  0  0  0  0  0  0  0  0
    5.4382   19.9933   34.5168 O   0  0  0  0  0  0  0  0  0  0  0  0
    3.5712   21.0614   33.7204 O   0  0  0  0  0  0  0  0  0  0  0  0
    2.9270   22.2724   33.3523 C   0  0  0  0  0  0  0  0  0  0  0  0
    1.0545   20.9123   32.8177 O   0  0  0  0  0  0  0  0  0  0  0  0
    1.3661   20.1292   31.6657 C   0  0  0  0  0  0  0  0  0  0  0  0
    1.2024   22.0974   29.2078 C   0  0  0  0  0  0  0  0  0  0  0  0
    0.1315   21.1407   29.6529 C   0  0  0  0  0  0  0  0  0  0  0  0
   -1.1199   21.1795   28.8144 C   0  0  0  0  0  0  0  0  0  0  0  0
    0.2266   20.2978   30.7008 C   0  0  0  0  0  0  0  0  0  0  0  0
 17 18  1  0  0  0
 18 19  1  0  0  0
 18 20  2  0  0  0
 20 16  1  0  0  0
 16 15  1  0  0  0
 15  1  1  0  0  0
  1  2  2  0  0  0
  2  3  1  0  0  0
  3  4  1  0  0  0
  4  5  2  0  0  0
  5  6  1  0  0  0
  6  7  2  0  0  0
  7  8  1  0  0  0
  8  9  1  0  0  0
  9 10  2  0  0  0
 10 11  1  0  0  0
 11 12  2  0  0  0
 11 13  1  0  0  0
 13 14  1  0  0  0
 14  1  1  0  0  0
  6  2  1  0  0  0
 14  8  2  0  0  0
M  END
> <minimizedAffinity>
-7.80340

$$$$



 20 22  0  0  0  0  0  0  0  0999 V2000
    1.5697   23.3497   33.1804 C   0  0  0  0  0  0  0  0  0  0  0  0
    1.5744   24.0317   31.9549 C   0  0  0  0  0  0  0  0  0  0  0  0
    0.4864   24.4421   31.2354 O   0  0  0  0  0  0  0  0  0  0  0  0
    0.9405   25.0604   30.1174 C   0  0  0  0  0  0  0  0  0  0  0  0
    2.3138   25.0617   30.0921 C   0  0  0  0  0  0  0  0  0  0  0  0
    2.7375   24.3986   31.2755 C   0  0  0  0  0  0  0  0  0  0  0  0
    3.9899   24.0755   31.8331 C   0  0  0  0  0  0  0  0  0  0  0  0
    4.0324   23.3929   33.0557 C   0  0  0  0  0  0  0  0  0  0  0  0
    5.3030   23.0371   33.6701 C   0  0  0  0  0  0  0  0  0  0  0  0
    5.3175   22.3845   34.8358 C   0  0  0  0  0  0  0  0  0  0  0  0
    4.0841   22.0004   35.5420 C   0  0  0  0  0  0  0  0  0  0  0  0
    4.1378   21.3999   36.6087 O   0  0  0  0  0  0  0  0  0  0  0  0
    2.8886   22.3524   34.9374 O   0  0  0  0  0  0  0  0  0  0  0  0
    2.8415   23.0461   33.6990 C   0  0  0  0  0  0  0  0  0  0  0  0
    0.4796   22.9441   33.9289 O   0  0  0  0  0  0  0  0  0  0  0  0
    0.0637   21.5869   33.7783 C   0  0  0  0  0  0  0  0  0  0  0  0
    1.6623   20.0698   31.5234 C   0  0  0  0  0  0  0  0  0  0  0  0
    0.3443   20.7739   31.3578 C   0  0  0  0  0  0  0  0  0  0  0  0
   -0.2101   20.7271   29.9575 C   0  0  0  0  0  0  0  0  0  0  0  0
   -0.3293   21.4069   32.3392 C   0  0  0  0  0  0  0  0  0  0  0  0
 17 18  1  0  0  0
 18 19  1  0  0  0
 18 20  2  0  0  0
 20 16  1  0  0  0
 16 15  1  0  0  0
 15  1  1  0  0  0
  1  2  2  0  0  0
  2  3  1  0  0  0
  3  4  1  0  0  0
  4  5  2  0  0  0
  5  6  1  0  0  0
  6  7  2  0  0  0
  7  8  1  0  0  0
  8  9  1  0  0  0
  9 10  2  0  0  0
 10 11  1  0  0  0
 11 12  2  0  0  0
 11 13  1  0  0  0
 13 14  1  0  0  0
 14  1  1  0  0  0
  6  2  1  0  0  0
 14  8  2  0  0  0
M  END
> <minimizedAffinity>
-7.73476

$$$$



 20 22  0  0  0  0  0  0  0  0999 V2000
    1.5240   22.7715   34.6897 C   0  0  0  0  0  0  0  0  0  0  0  0
    2.0313   22.3169   35.9156 C   0  0  0  0  0  0  0  0  0  0  0  0
    1.3207   21.7855   36.9560 O   0  0  0  0  0  0  0  0  0  0  0  0
    2.1995   21.4796   37.9422 C   0  0  0  0  0  0  0  0  0  0  0  0
    3.4796   21.8035   37.5638 C   0  0  0  0  0  0  0  0  0  0  0  0
    3.3854   22.3470   36.2541 C   0  0  0  0  0  0  0  0  0  0  0  0
    4.3141   22.8593   35.3273 C   0  0  0  0  0  0  0  0  0  0  0  0
    3.8511   23.3259   34.0903 C   0  0  0  0  0  0  0  0  0  0  0  0
    4.7731   23.8647   33.1013 C   0  0  0  0  0  0  0  0  0  0  0  0
    4.3070   24.3052   31.9292 C   0  0  0  0  0  0  0  0  0  0  0  0
    2.8762   24.2709   31.5844 C   0  0  0  0  0  0  0  0  0  0  0  0
    2.4862   24.6867   30.4997 O   0  0  0  0  0  0  0  0  0  0  0  0
    2.0202   23.7518   32.5417 O   0  0  0  0  0  0  0  0  0  0  0  0
    2.4860   23.2760   33.7961 C   0  0  0  0  0  0  0  0  0  0  0  0
    0.2091   22.7844   34.2606 O   0  0  0  0  0  0  0  0  0  0  0  0
   -0.3528   21.5322   33.8682 C   0  0  0  0  0  0  0  0  0  0  0  0
    1.6775   20.2679   31.8135 C   0  0  0  0  0  0  0  0  0  0  0  0
    0.4213   21.0204   31.4729 C   0  0  0  0  0  0  0  0  0  0  0  0
    0.1674   21.1627   29.9944 C   0  0  0  0  0  0  0  0  0  0  0  0
   -0.4406   21.5430   32.3681 C   0  0  0  0  0  0  0  0  0  0  0  0
 17 18  1  0  0  0
 18 19  1  0  0  0
 18 20  2  0  0  0
 20 16  1  0  0  0
 16 15  1  0  0  0
 15  1  1  0  0  0
  1  2  2  0  0  0
  2  3  1  0  0  0
  3  4  1  0  0  0
  4  5  2  0  0  0
  5  6  1  0  0  0
  6  7  2  0  0  0
  7  8  1  0  0  0
  8  9  1  0  0  0
  9 10  2  0  0  0
 10 11  1  0  0  0
 11 12  2  0  0  0
 11 13  1  0  0  0
 13 14  1  0  0  0
 14  1  1  0  0  0
  6  2  1  0  0  0
 14  8  2  0  0  0
M  END
> <minimizedAffinity>
-7.72611

$$$$



 20 22  0  0  0  0  0  0  0  0999 V2000
    1.2501   22.3293   33.5351 C   0  0  0  0  0  0  0  0  0  0  0  0
    0.2553   21.9600   34.4522 C   0  0  0  0  0  0  0  0  0  0  0  0
   -0.9901   21.4733   34.1663 O   0  0  0  0  0  0  0  0  0  0  0  0
   -1.6249   21.2474   35.3429 C   0  0  0  0  0  0  0  0  0  0  0  0
   -0.8126   21.5797   36.3996 C   0  0  0  0  0  0  0  0  0  0  0  0
    0.4077   22.0429   35.8374 C   0  0  0  0  0  0  0  0  0  0  0  0
    1.6211   22.5225   36.3678 C   0  0  0  0  0  0  0  0  0  0  0  0
    2.6421   22.9043   35.4880 C   0  0  0  0  0  0  0  0  0  0  0  0
    3.9129   23.4066   35.9895 C   0  0  0  0  0  0  0  0  0  0  0  0
    4.8708   23.7660   35.1302 C   0  0  0  0  0  0  0  0  0  0  0  0
    4.6977   23.6766   33.6710 C   0  0  0  0  0  0  0  0  0  0  0  0
    5.5988   24.0184   32.9143 O   0  0  0  0  0  0  0  0  0  0  0  0
    3.4804   23.1938   33.2197 O   0  0  0  0  0  0  0  0  0  0  0  0
    2.4436   22.8039   34.1085 C   0  0  0  0  0  0  0  0  0  0  0  0
    1.1983   22.2849   32.1536 O   0  0  0  0  0  0  0  0  0  0  0  0
    1.9779   21.2760   31.5118 C   0  0  0  0  0  0  0  0  0  0  0  0
   -0.4507   20.8212   29.5530 C   0  0  0  0  0  0  0  0  0  0  0  0
    0.0583   19.8467   30.5785 C   0  0  0  0  0  0  0  0  0  0  0  0
   -0.7120   18.5530   30.6381 C   0  0  0  0  0  0  0  0  0  0  0  0
    1.1075   20.0563   31.3988 C   0  0  0  0  0  0  0  0  0  0  0  0
 17 18  1  0  0  0
 18 19  1  0  0  0
 18 20  2  0  0  0
 20 16  1  0  0  0
 16 15  1  0  0  0
 15  1  1  0  0  0
  1  2  2  0  0  0
  2  3  1  0  0  0
  3  4  1  0  0  0
  4  5  2  0  0  0
  5  6  1  0  0  0
  6  7  2  0  0  0
  7  8  1  0  0  0
  8  9  1  0  0  0
  9 10  2  0  0  0
 10 11  1  0  0  0
 11 12  2  0  0  0
 11 13  1  0  0  0
 13 14  1  0  0  0
 14  1  1  0  0  0
  6  2  1  0  0  0
 14  8  2  0  0  0
M  END
> <minimizedAffinity>
-7.70232

$$$$



 20 22  0  0  0  0  0  0  0  0999 V2000
    2.1242   21.4288   32.8473 C   0  0  0  0  0  0  0  0  0  0  0  0
    1.1304   21.6925   31.8934 C   0  0  0  0  0  0  0  0  0  0  0  0
    1.0939   21.2556   30.5982 O   0  0  0  0  0  0  0  0  0  0  0  0
   -0.0384   21.7400   30.0312 C   0  0  0  0  0  0  0  0  0  0  0  0
   -0.7475   22.4905   30.9372 C   0  0  0  0  0  0  0  0  0  0  0  0
   -0.0020   22.4686   32.1470 C   0  0  0  0  0  0  0  0  0  0  0  0
   -0.1780   23.0299   33.4267 C   0  0  0  0  0  0  0  0  0  0  0  0
    0.7912   22.7935   34.4102 C   0  0  0  0  0  0  0  0  0  0  0  0
    0.6528   23.3532   35.7467 C   0  0  0  0  0  0  0  0  0  0  0  0
    1.5915   23.1150   36.6671 C   0  0  0  0  0  0  0  0  0  0  0  0
    2.7831   22.2970   36.3873 C   0  0  0  0  0  0  0  0  0  0  0  0
    3.6241   22.1028   37.2571 O   0  0  0  0  0  0  0  0  0  0  0  0
    2.8900   21.7745   35.1090 O   0  0  0  0  0  0  0  0  0  0  0  0
    1.9086   22.0102   34.1098 C   0  0  0  0  0  0  0  0  0  0  0  0
    3.2756   20.6773   32.6969 O   0  0  0  0  0  0  0  0  0  0  0  0
    4.3073   21.2351   31.8832 C   0  0  0  0  0  0  0  0  0  0  0  0
    4.1731   24.3728   32.1637 C   0  0  0  0  0  0  0  0  0  0  0  0
    5.1083   23.4541   32.8997 C   0  0  0  0  0  0  0  0  0  0  0  0
    6.0560   24.1574   33.8366 C   0  0  0  0  0  0  0  0  0  0  0  0
    5.1410   22.1122   32.7741 C   0  0  0  0  0  0  0  0  0  0  0  0
 17 18  1  0  0  0
 18 19  1  0  0  0
 18 20  2  0  0  0
 20 16  1  0  0  0
 16 15  1  0  0  0
 15  1  1  0  0  0
  1  2  2  0  0  0
  2  3  1  0  0  0
  3  4  1  0  0  0
  4  5  2  0  0  0
  5  6  1  0  0  0
  6  7  2  0  0  0
  7  8  1  0  0  0
  8  9  1  0  0  0
  9 10  2  0  0  0
 10 11  1  0  0  0
 11 12  2  0  0  0
 11 13  1  0  0  0
 13 14  1  0  0  0
 14  1  1  0  0  0
  6  2  1  0  0  0
 14  8  2  0  0  0
M  END
> <minimizedAffinity>
-7.59964

$$$$



 20 22  0  0  0  0  0  0  0  0999 V2000
    2.1968   22.9949   32.0376 C   0  0  0  0  0  0  0  0  0  0  0  0
    1.3585   22.1112   31.3424 C   0  0  0  0  0  0  0  0  0  0  0  0
    0.2796   22.4354   30.5674 O   0  0  0  0  0  0  0  0  0  0  0  0
   -0.2430   21.2814   30.0842 C   0  0  0  0  0  0  0  0  0  0  0  0
    0.4784   20.2017   30.5318 C   0  0  0  0  0  0  0  0  0  0  0  0
    1.5181   20.7243   31.3477 C   0  0  0  0  0  0  0  0  0  0  0  0
    2.5742   20.1569   32.0871 C   0  0  0  0  0  0  0  0  0  0  0  0
    3.4354   21.0025   32.7982 C   0  0  0  0  0  0  0  0  0  0  0  0
    4.5400   20.4621   33.5768 C   0  0  0  0  0  0  0  0  0  0  0  0
    5.3467   21.2891   34.2480 C   0  0  0  0  0  0  0  0  0  0  0  0
    5.1670   22.7502   34.2370 C   0  0  0  0  0  0  0  0  0  0  0  0
    5.9263   23.4764   34.8676 O   0  0  0  0  0  0  0  0  0  0  0  0
    4.1101   23.2391   33.4870 O   0  0  0  0  0  0  0  0  0  0  0  0
    3.2361   22.3851   32.7632 C   0  0  0  0  0  0  0  0  0  0  0  0
    2.1240   24.3750   32.0956 O   0  0  0  0  0  0  0  0  0  0  0  0
    1.4305   24.9373   33.2094 C   0  0  0  0  0  0  0  0  0  0  0  0
    1.7437   23.6010   36.0481 C   0  0  0  0  0  0  0  0  0  0  0  0
    0.7181   23.2466   35.0074 C   0  0  0  0  0  0  0  0  0  0  0  0
   -0.2126   22.1323   35.4107 C   0  0  0  0  0  0  0  0  0  0  0  0
    0.5935   23.8396   33.8031 C   0  0  0  0  0  0  0  0  0  0  0  0
 17 18  1  0  0  0
 18 19  1  0  0  0
 18 20  2  0  0  0
 20 16  1  0  0  0
 16 15  1  0  0  0
 15  1  1  0  0  0
  1  2  2  0  0  0
  2  3  1  0  0  0
  3  4  1  0  0  0
  4  5  2  0  0  0
  5  6  1  0  0  0
  6  7  2  0  0  0
  7  8  1  0  0  0
  8  9  1  0  0  0
  9 10  2  0  0  0
 10 11  1  0  0  0
 11 12  2  0  0  0
 11 13  1  0  0  0
 13 14  1  0  0  0
 14  1  1  0  0  0
  6  2  1  0  0  0
 14  8  2  0  0  0
M  END
> <minimizedAffinity>
-7.51490

$$$$



 20 22  0  0  0  0  0  0  0  0999 V2000
    2.0920   22.0815   32.8673 C   0  0  0  0  0  0  0  0  0  0  0  0
    1.3898   21.6768   31.7227 C   0  0  0  0  0  0  0  0  0  0  0  0
    1.8603   21.6316   30.4396 O   0  0  0  0  0  0  0  0  0  0  0  0
    0.8558   21.1827   29.6474 C   0  0  0  0  0  0  0  0  0  0  0  0
   -0.2702   20.9323   30.3931 C   0  0  0  0  0  0  0  0  0  0  0  0
    0.0613   21.2482   31.7385 C   0  0  0  0  0  0  0  0  0  0  0  0
   -0.6347   21.2122   32.9625 C   0  0  0  0  0  0  0  0  0  0  0  0
    0.0276   21.6094   34.1313 C   0  0  0  0  0  0  0  0  0  0  0  0
   -0.6507   21.5899   35.4190 C   0  0  0  0  0  0  0  0  0  0  0  0
    0.0018   21.9751   36.5194 C   0  0  0  0  0  0  0  0  0  0  0  0
    1.4024   22.4277   36.4901 C   0  0  0  0  0  0  0  0  0  0  0  0
    1.9666   22.7760   37.5205 O   0  0  0  0  0  0  0  0  0  0  0  0
    2.0256   22.4350   35.2531 O   0  0  0  0  0  0  0  0  0  0  0  0
    1.3581   22.0312   34.0663 C   0  0  0  0  0  0  0  0  0  0  0  0
    3.4009   22.5195   32.9570 O   0  0  0  0  0  0  0  0  0  0  0  0
    3.6747   23.8346   32.4740 C   0  0  0  0  0  0  0  0  0  0  0  0
    1.5396   24.9668   30.4488 C   0  0  0  0  0  0  0  0  0  0  0  0
    1.5530   25.1795   31.9371 C   0  0  0  0  0  0  0  0  0  0  0  0
    0.4217   26.0325   32.4501 C   0  0  0  0  0  0  0  0  0  0  0  0
    2.4696   24.6756   32.7877 C   0  0  0  0  0  0  0  0  0  0  0  0
 17 18  1  0  0  0
 18 19  1  0  0  0
 18 20  2  0  0  0
 20 16  1  0  0  0
 16 15  1  0  0  0
 15  1  1  0  0  0
  1  2  2  0  0  0
  2  3  1  0  0  0
  3  4  1  0  0  0
  4  5  2  0  0  0
  5  6  1  0  0  0
  6  7  2  0  0  0
  7  8  1  0  0  0
  8  9  1  0  0  0
  9 10  2  0  0  0
 10 11  1  0  0  0
 11 12  2  0  0  0
 11 13  1  0  0  0
 13 14  1  0  0  0
 14  1  1  0  0  0
  6  2  1  0  0  0
 14  8  2  0  0  0
M  END
> <minimizedAffinity>
-7.49770

$$$$



 20 22  0  0  0  0  0  0  0  0999 V2000
    3.0363   23.3290   33.2798 C   0  0  0  0  0  0  0  0  0  0  0  0
    2.0891   24.0242   32.5141 C   0  0  0  0  0  0  0  0  0  0  0  0
    2.2383   24.4811   31.2340 O   0  0  0  0  0  0  0  0  0  0  0  0
    1.0831   25.0951   30.8777 C   0  0  0  0  0  0  0  0  0  0  0  0
    0.1756   25.0481   31.9077 C   0  0  0  0  0  0  0  0  0  0  0  0
    0.8138   24.3580   32.9736 C   0  0  0  0  0  0  0  0  0  0  0  0
    0.4342   23.9863   34.2780 C   0  0  0  0  0  0  0  0  0  0  0  0
    1.3498   23.2916   35.0789 C   0  0  0  0  0  0  0  0  0  0  0  0
    1.0029   22.8873   36.4334 C   0  0  0  0  0  0  0  0  0  0  0  0
    1.8940   22.2270   37.1784 C   0  0  0  0  0  0  0  0  0  0  0  0
    3.2373   21.8827   36.6839 C   0  0  0  0  0  0  0  0  0  0  0  0
    4.0285   21.2783   37.3981 O   0  0  0  0  0  0  0  0  0  0  0  0
    3.5418   22.2769   35.3914 O   0  0  0  0  0  0  0  0  0  0  0  0
    2.6155   22.9796   34.5757 C   0  0  0  0  0  0  0  0  0  0  0  0
    4.3174   22.9525   32.9190 O   0  0  0  0  0  0  0  0  0  0  0  0
    4.4375   22.0414   31.8267 C   0  0  0  0  0  0  0  0  0  0  0  0
    1.9367   21.5074   29.9821 C   0  0  0  0  0  0  0  0  0  0  0  0
    2.2890   20.7618   31.2393 C   0  0  0  0  0  0  0  0  0  0  0  0
    1.3114   19.6765   31.6091 C   0  0  0  0  0  0  0  0  0  0  0  0
    3.3711   20.9983   32.0077 C   0  0  0  0  0  0  0  0  0  0  0  0
 17 18  1  0  0  0
 18 19  1  0  0  0
 18 20  2  0  0  0
 20 16  1  0  0  0
 16 15  1  0  0  0
 15  1  1  0  0  0
  1  2  2  0  0  0
  2  3  1  0  0  0
  3  4  1  0  0  0
  4  5  2  0  0  0
  5  6  1  0  0  0
  6  7  2  0  0  0
  7  8  1  0  0  0
  8  9  1  0  0  0
  9 10  2  0  0  0
 10 11  1  0  0  0
 11 12  2  0  0  0
 11 13  1  0  0  0
 13 14  1  0  0  0
 14  1  1  0  0  0
  6  2  1  0  0  0
 14  8  2  0  0  0
M  END
> <minimizedAffinity>
-7.48102

$$$$



 20 22  0  0  0  0  0  0  0  0999 V2000
    1.6417   22.1222   33.5543 C   0  0  0  0  0  0  0  0  0  0  0  0
    3.0305   22.0899   33.7465 C   0  0  0  0  0  0  0  0  0  0  0  0
    3.7162   21.3749   34.6891 O   0  0  0  0  0  0  0  0  0  0  0  0
    5.0369   21.6321   34.5221 C   0  0  0  0  0  0  0  0  0  0  0  0
    5.2289   22.5078   33.4814 C   0  0  0  0  0  0  0  0  0  0  0  0
    3.9383   22.8128   32.9704 C   0  0  0  0  0  0  0  0  0  0  0  0
    3.4550   23.6289   31.9291 C   0  0  0  0  0  0  0  0  0  0  0  0
    2.0741   23.6925   31.7024 C   0  0  0  0  0  0  0  0  0  0  0  0
    1.5280   24.5225   30.6387 C   0  0  0  0  0  0  0  0  0  0  0  0
    0.2071   24.5679   30.4432 C   0  0  0  0  0  0  0  0  0  0  0  0
   -0.7409   23.8029   31.2699 C   0  0  0  0  0  0  0  0  0  0  0  0
   -1.9465   23.8723   31.0618 O   0  0  0  0  0  0  0  0  0  0  0  0
   -0.1958   23.0195   32.2738 O   0  0  0  0  0  0  0  0  0  0  0  0
    1.2037   22.9509   32.5055 C   0  0  0  0  0  0  0  0  0  0  0  0
    0.6645   21.4475   34.2636 O   0  0  0  0  0  0  0  0  0  0  0  0
    0.0873   22.1316   35.3755 C   0  0  0  0  0  0  0  0  0  0  0  0
    2.3192   23.8940   36.7371 C   0  0  0  0  0  0  0  0  0  0  0  0
    1.8846   22.5211   37.1690 C   0  0  0  0  0  0  0  0  0  0  0  0
    2.6301   21.9835   38.3631 C   0  0  0  0  0  0  0  0  0  0  0  0
    0.9184   21.7887   36.5795 C   0  0  0  0  0  0  0  0  0  0  0  0
 17 18  1  0  0  0
 18 19  1  0  0  0
 18 20  2  0  0  0
 20 16  1  0  0  0
 16 15  1  0  0  0
 15  1  1  0  0  0
  1  2  2  0  0  0
  2  3  1  0  0  0
  3  4  1  0  0  0
  4  5  2  0  0  0
  5  6  1  0  0  0
  6  7  2  0  0  0
  7  8  1  0  0  0
  8  9  1  0  0  0
  9 10  2  0  0  0
 10 11  1  0  0  0
 11 12  2  0  0  0
 11 13  1  0  0  0
 13 14  1  0  0  0
 14  1  1  0  0  0
  6  2  1  0  0  0
 14  8  2  0  0  0
M  END
> <minimizedAffinity>
-7.43704

$$$$



 20 22  0  0  0  0  0  0  0  0999 V2000
    3.2402   23.7595   34.9411 C   0  0  0  0  0  0  0  0  0  0  0  0
    2.3075   24.1001   33.9506 C   0  0  0  0  0  0  0  0  0  0  0  0
    2.5020   24.9388   32.8883 O   0  0  0  0  0  0  0  0  0  0  0  0
    1.3452   24.9860   32.1827 C   0  0  0  0  0  0  0  0  0  0  0  0
    0.3917   24.1888   32.7676 C   0  0  0  0  0  0  0  0  0  0  0  0
    1.0011   23.6095   33.9134 C   0  0  0  0  0  0  0  0  0  0  0  0
    0.5720   22.7203   34.9180 C   0  0  0  0  0  0  0  0  0  0  0  0
    1.4704   22.3539   35.9284 C   0  0  0  0  0  0  0  0  0  0  0  0
    1.0721   21.4388   36.9879 C   0  0  0  0  0  0  0  0  0  0  0  0
    1.9466   21.1058   37.9415 C   0  0  0  0  0  0  0  0  0  0  0  0
    3.3213   21.6317   37.9719 C   0  0  0  0  0  0  0  0  0  0  0  0
    4.0942   21.3049   38.8649 O   0  0  0  0  0  0  0  0  0  0  0  0
    3.6759   22.4988   36.9515 O   0  0  0  0  0  0  0  0  0  0  0  0
    2.7685   22.8711   35.9244 C   0  0  0  0  0  0  0  0  0  0  0  0
    4.5494   24.1877   35.0660 O   0  0  0  0  0  0  0  0  0  0  0  0
    5.5556   23.3642   34.4768 C   0  0  0  0  0  0  0  0  0  0  0  0
    4.8551   20.3609   33.8199 C   0  0  0  0  0  0  0  0  0  0  0  0
    4.6855   21.5353   32.8967 C   0  0  0  0  0  0  0  0  0  0  0  0
    4.1366   21.1803   31.5390 C   0  0  0  0  0  0  0  0  0  0  0  0
    4.9801   22.8150   33.2020 C   0  0  0  0  0  0  0  0  0  0  0  0
 17 18  1  0  0  0
 18 19  1  0  0  0
 18 20  2  0  0  0
 20 16  1  0  0  0
 16 15  1  0  0  0
 15  1  1  0  0  0
  1  2  2  0  0  0
  2  3  1  0  0  0
  3  4  1  0  0  0
  4  5  2  0  0  0
  5  6  1  0  0  0
  6  7  2  0  0  0
  7  8  1  0  0  0
  8  9  1  0  0  0
  9 10  2  0  0  0
 10 11  1  0  0  0
 11 12  2  0  0  0
 11 13  1  0  0  0
 13 14  1  0  0  0
 14  1  1  0  0  0
  6  2  1  0  0  0
 14  8  2  0  0  0
M  END
> <minimizedAffinity>
-7.42743

$$$$
