
     RDKit          3D

 34 36  0  0  0  0  0  0  0  0999 V2000
    3.9239   -1.0962    1.6036 C   0  0  0  0  0  0  0  0  0  0  0  0
    3.8157   -0.6937    0.1591 C   0  0  0  0  0  0  0  0  0  0  0  0
    5.1327   -0.3500   -0.4874 C   0  0  0  0  0  0  0  0  0  0  0  0
    2.6695   -0.6291   -0.5477 C   0  0  0  0  0  0  0  0  0  0  0  0
    1.2669   -0.9025   -0.0830 C   0  0  0  0  0  0  0  0  0  0  0  0
    0.4592    0.1827   -0.5386 O   0  0  0  0  0  0  0  0  0  0  0  0
   -0.8908    0.1229   -0.2435 C   0  0  0  0  0  0  0  0  0  0  0  0
   -1.5835   -0.8824    0.4468 C   0  0  0  0  0  0  0  0  0  0  0  0
   -1.0603   -2.0286    0.9780 O   0  0  0  0  0  0  0  0  0  0  0  0
   -2.0757   -2.7164    1.5561 C   0  0  0  0  0  0  0  0  0  0  0  0
   -3.2608   -2.0371    1.4117 C   0  0  0  0  0  0  0  0  0  0  0  0
   -2.9569   -0.8481    0.6950 C   0  0  0  0  0  0  0  0  0  0  0  0
   -3.7112    0.2488    0.2349 C   0  0  0  0  0  0  0  0  0  0  0  0
   -3.0602    1.2756   -0.4610 C   0  0  0  0  0  0  0  0  0  0  0  0
   -3.7980    2.4284   -0.9562 C   0  0  0  0  0  0  0  0  0  0  0  0
   -3.1549    3.3941   -1.6187 C   0  0  0  0  0  0  0  0  0  0  0  0
   -1.7063    3.3458   -1.8768 C   0  0  0  0  0  0  0  0  0  0  0  0
   -1.1520    4.2499   -2.4907 O   0  0  0  0  0  0  0  0  0  0  0  0
   -1.0272    2.2395   -1.3935 O   0  0  0  0  0  0  0  0  0  0  0  0
   -1.6833    1.1975   -0.6859 C   0  0  0  0  0  0  0  0  0  0  0  0
    4.6437   -1.9146    1.7123 H   0  0  0  0  0  0  0  0  0  0  0  0
    2.9813   -1.4444    2.0308 H   0  0  0  0  0  0  0  0  0  0  0  0
    4.2721   -0.2498    2.2046 H   0  0  0  0  0  0  0  0  0  0  0  0
    5.6090    0.4812    0.0428 H   0  0  0  0  0  0  0  0  0  0  0  0
    5.0176   -0.0529   -1.5351 H   0  0  0  0  0  0  0  0  0  0  0  0
    5.8059   -1.2131   -0.4589 H   0  0  0  0  0  0  0  0  0  0  0  0
    2.7245   -0.3340   -1.5955 H   0  0  0  0  0  0  0  0  0  0  0  0
    0.9338   -1.8379   -0.5464 H   0  0  0  0  0  0  0  0  0  0  0  0
    1.2099   -0.9671    1.0062 H   0  0  0  0  0  0  0  0  0  0  0  0
   -1.8007   -3.6535    2.0203 H   0  0  0  0  0  0  0  0  0  0  0  0
   -4.2261   -2.3578    1.7769 H   0  0  0  0  0  0  0  0  0  0  0  0
   -4.7806    0.2870    0.4220 H   0  0  0  0  0  0  0  0  0  0  0  0
   -4.8665    2.4899   -0.7805 H   0  0  0  0  0  0  0  0  0  0  0  0
   -3.6708    4.2661   -2.0016 H   0  0  0  0  0  0  0  0  0  0  0  0
  1  2  1  0
  2  3  1  0
  2  4  2  3
  4  5  1  0
  5  6  1  0
  6  7  1  0
  7  8  2  0
  8  9  1  0
  9 10  1  0
 10 11  2  0
 11 12  1  0
 12 13  2  0
 13 14  1  0
 14 15  1  0
 15 16  2  0
 16 17  1  0
 17 18  2  0
 17 19  1  0
 19 20  1  0
 20  7  1  0
 12  8  1  0
 20 14  2  0
  1 21  1  0
  1 22  1  0
  1 23  1  0
  3 24  1  0
  3 25  1  0
  3 26  1  0
  4 27  1  0
  5 28  1  0
  5 29  1  0
 10 30  1  0
 11 31  1  0
 13 32  1  0
 15 33  1  0
 16 34  1  0
M  END
$$$$
