
     RDKit          3D

 47 49  0  0  0  0  0  0  0  0999 V2000
   -1.8990   21.9740   36.0850 C   0  0  0  0  0  0  0  0  0  0  0  0
   -2.7790   21.8160   34.9700 O   0  0  0  0  0  0  0  0  0  0  0  0
   -2.2800   21.1110   33.9480 C   0  0  0  0  0  0  0  0  0  0  0  0
   -2.9420   20.8590   32.7860 C   0  0  0  0  0  0  0  0  0  0  0  0
   -4.2710   21.4190   32.3960 C   0  0  0  0  0  0  0  0  0  0  0  0
   -4.6650   21.2890   31.2590 O   0  0  0  0  0  0  0  0  0  0  0  0
   -5.0210   22.0270   33.2980 O   0  0  0  0  0  0  0  0  0  0  0  0
   -6.3520   22.4290   32.9070 C   0  0  0  0  0  0  0  0  0  0  0  0
   -2.2650   19.9920   31.8520 C   0  0  0  0  0  0  0  0  0  0  0  0
   -2.5360   18.6290   31.8650 C   0  0  0  0  0  0  0  0  0  0  0  0
   -1.9180   17.7880   30.9710 C   0  0  0  0  0  0  0  0  0  0  0  0
   -1.0060   18.3040   30.0450 C   0  0  0  0  0  0  0  0  0  0  0  0
   -0.7380   19.6880   30.0240 C   0  0  0  0  0  0  0  0  0  0  0  0
   -1.3680   20.5260   30.9140 C   0  0  0  0  0  0  0  0  0  0  0  0
   -1.1190   21.9260   30.8910 O   0  0  0  0  0  0  0  0  0  0  0  0
   -0.0560   22.5150   31.6000 C   0  0  0  0  0  0  0  0  0  0  0  0
    0.9260   21.7850   32.2590 C   0  0  0  0  0  0  0  0  0  0  0  0
    1.8890   22.4690   32.9940 C   0  0  0  0  0  0  0  0  0  0  0  0
    2.8500   21.7540   33.7180 O   0  0  0  0  0  0  0  0  0  0  0  0
    2.8750   21.9070   35.1170 C   0  0  0  0  0  0  0  0  0  0  0  0
    1.7980   21.4820   35.8720 C   0  0  0  0  0  0  0  0  0  0  0  0
    1.8190   21.5920   37.2480 C   0  0  0  0  0  0  0  0  0  0  0  0
    2.9060   22.1500   37.8740 C   0  0  0  0  0  0  0  0  0  0  0  0
    4.0090   22.6020   37.1300 C   0  0  0  0  0  0  0  0  0  0  0  0
    4.0040   22.4970   35.7530 C   0  0  0  0  0  0  0  0  0  0  0  0
    5.1400   22.9780   35.0220 C   0  0  0  0  0  0  0  0  0  0  0  0
    6.0610   23.3570   34.4060 N   0  0  0  0  0  0  0  0  0  0  0  0
    1.8890   23.8020   33.0510 N   0  0  0  0  0  0  0  0  0  0  0  0
    0.9550   24.4940   32.3930 C   0  0  0  0  0  0  0  0  0  0  0  0
   -0.0140   23.8760   31.6680 N   0  0  0  0  0  0  0  0  0  0  0  0
   -2.4696   21.8716   37.0198 H   0  0  0  0  0  0  0  0  0  0  0  0
   -1.1163   21.2020   36.0467 H   0  0  0  0  0  0  0  0  0  0  0  0
   -1.4338   22.9700   36.0467 H   0  0  0  0  0  0  0  0  0  0  0  0
   -1.2627   20.7065   34.0547 H   0  0  0  0  0  0  0  0  0  0  0  0
   -6.9587   22.6122   33.8061 H   0  0  0  0  0  0  0  0  0  0  0  0
   -6.2958   23.3503   32.3086 H   0  0  0  0  0  0  0  0  0  0  0  0
   -6.8152   21.6307   32.3086 H   0  0  0  0  0  0  0  0  0  0  0  0
   -3.2498   18.2207   32.5956 H   0  0  0  0  0  0  0  0  0  0  0  0
   -2.1403   16.7108   30.9838 H   0  0  0  0  0  0  0  0  0  0  0  0
   -0.4997   17.6327   29.3358 H   0  0  0  0  0  0  0  0  0  0  0  0
   -0.0239   20.0981   29.2947 H   0  0  0  0  0  0  0  0  0  0  0  0
    0.9415   20.6867   32.2005 H   0  0  0  0  0  0  0  0  0  0  0  0
    0.9170   21.0527   35.3724 H   0  0  0  0  0  0  0  0  0  0  0  0
    0.9657   21.2330   37.8422 H   0  0  0  0  0  0  0  0  0  0  0  0
    2.9136   22.2443   38.9699 H   0  0  0  0  0  0  0  0  0  0  0  0
    4.8770   23.0398   37.6447 H   0  0  0  0  0  0  0  0  0  0  0  0
    0.9706   25.5929   32.4392 H   0  0  0  0  0  0  0  0  0  0  0  0
  2  1  1  0
  3  2  1  0
  4  3  2  3
  5  4  1  0
  6  5  2  0
  7  5  1  0
  8  7  1  0
  9  4  1  0
 10  9  4  0
 11 10  4  0
 12 11  4  0
 13 12  4  0
 14 13  4  0
 14  9  4  0
 15 14  1  0
 16 15  1  0
 17 16  4  0
 18 17  4  0
 19 18  1  0
 20 19  1  0
 21 20  4  0
 22 21  4  0
 23 22  4  0
 24 23  4  0
 25 24  4  0
 25 20  4  0
 26 25  1  0
 27 26  3  0
 28 18  4  0
 29 28  4  0
 30 29  4  0
 30 16  4  0
  1 31  1  0
  1 32  1  0
  1 33  1  0
  3 34  1  0
  8 35  1  0
  8 36  1  0
  8 37  1  0
 10 38  1  0
 11 39  1  0
 12 40  1  0
 13 41  1  0
 17 42  1  0
 21 43  1  0
 22 44  1  0
 23 45  1  0
 24 46  1  0
 29 47  1  0
M  END
