
     RDKit          3D

 27 28  0  0  0  0  0  0  0  0999 V2000
    2.7290   25.2540   34.5130 C   0  0  0  0  0  0  0  0  0  0  0  0
    3.1580   23.9020   33.9540 C   0  0  1  0  0  0  0  0  0  0  0  0
    4.2050   23.2170   34.7990 C   0  0  0  0  0  0  0  0  0  0  0  0
    3.6910   22.7290   36.0390 O   0  0  0  0  0  0  0  0  0  0  0  0
    2.3880   22.2840   36.0960 C   0  0  0  0  0  0  0  0  0  0  0  0
    1.9390   21.7250   37.2870 C   0  0  0  0  0  0  0  0  0  0  0  0
    0.6020   21.3430   37.4060 C   0  0  0  0  0  0  0  0  0  0  0  0
   -0.2720   21.5120   36.3610 C   0  0  0  0  0  0  0  0  0  0  0  0
    0.1650   22.0670   35.1720 C   0  0  0  0  0  0  0  0  0  0  0  0
    1.4950   22.4290   35.0270 C   0  0  0  0  0  0  0  0  0  0  0  0
    2.0050   23.0080   33.8350 N   0  0  0  0  0  0  0  0  0  0  0  0
    1.5500   22.7170   32.5910 C   0  0  0  0  0  0  0  0  0  0  0  0
    1.4670   23.5850   31.7430 O   0  0  0  0  0  0  0  0  0  0  0  0
    1.2530   21.2570   32.2520 C   0  0  2  0  0  0  0  0  0  0  0  0
    2.7810   20.3620   32.1060 Cl  0  0  0  0  0  0  0  0  0  0  0  0
    0.3750   21.0670   30.7840 Cl  0  0  0  0  0  0  0  0  0  0  0  0
    2.7408   25.2167   35.6123 H   0  0  0  0  0  0  0  0  0  0  0  0
    3.4244   26.0320   34.1650 H   0  0  0  0  0  0  0  0  0  0  0  0
    1.7122   25.4887   34.1650 H   0  0  0  0  0  0  0  0  0  0  0  0
    3.5967   24.1095   32.9669 H   0  0  0  0  0  0  0  0  0  0  0  0
    4.6135   22.3683   34.2308 H   0  0  0  0  0  0  0  0  0  0  0  0
    4.9774   23.9639   35.0346 H   0  0  0  0  0  0  0  0  0  0  0  0
    2.6324   21.5848   38.1294 H   0  0  0  0  0  0  0  0  0  0  0  0
    0.2444   20.9015   38.3479 H   0  0  0  0  0  0  0  0  0  0  0  0
   -1.3227   21.2052   36.4696 H   0  0  0  0  0  0  0  0  0  0  0  0
   -0.5416   22.2208   34.3431 H   0  0  0  0  0  0  0  0  0  0  0  0
    0.6294   20.8658   33.0694 H   0  0  0  0  0  0  0  0  0  0  0  0
  2  1  1  0
  3  2  1  0
  4  3  1  0
  5  4  1  0
  6  5  4  0
  7  6  4  0
  8  7  4  0
  9  8  4  0
 10  9  4  0
 10  5  4  0
 11 10  1  0
 11  2  1  0
 12 11  1  0
 13 12  2  0
 14 12  1  0
 15 14  1  0
 16 14  1  0
  1 17  1  0
  1 18  1  0
  1 19  1  0
  2 20  1  6
  3 21  1  0
  3 22  1  0
  6 23  1  0
  7 24  1  0
  8 25  1  0
  9 26  1  0
 14 27  1  1
M  END
