
     RDKit          3D

 19 20  0  0  0  0  0  0  0  0999 V2000
    0.6620   21.2020   37.6730 C   0  0  0  0  0  0  0  0  0  0  0  0
    0.1490   22.0880   36.2200 S   0  0  0  0  0  0  0  0  0  0  0  0
    1.6610   22.4430   35.3820 C   0  0  0  0  0  0  0  0  0  0  0  0
    2.6960   22.0510   35.8660 O   0  0  0  0  0  0  0  0  0  0  0  0
    1.6000   23.2190   34.1310 C   0  0  0  0  0  0  0  0  0  0  0  0
    0.4190   23.7350   33.6510 C   0  0  0  0  0  0  0  0  0  0  0  0
    0.3760   24.4710   32.4790 C   0  0  0  0  0  0  0  0  0  0  0  0
    1.5220   24.7100   31.7530 C   0  0  0  0  0  0  0  0  0  0  0  0
    2.7150   24.1950   32.2190 C   0  0  0  0  0  0  0  0  0  0  0  0
    3.9190   24.3200   31.6550 N   0  0  0  0  0  0  0  0  0  0  0  0
    4.9700   23.5660   32.5460 S   0  0  0  0  0  0  0  0  0  0  0  0
    4.0230   23.0510   33.6720 N   0  0  0  0  0  0  0  0  0  0  0  0
    2.7710   23.4540   33.3970 C   0  0  0  0  0  0  0  0  0  0  0  0
    0.3430   21.7529   38.5701 H   0  0  0  0  0  0  0  0  0  0  0  0
    0.2030   20.2024   37.6741 H   0  0  0  0  0  0  0  0  0  0  0  0
    1.7575   21.1024   37.6741 H   0  0  0  0  0  0  0  0  0  0  0  0
   -0.5117   23.5592   34.2104 H   0  0  0  0  0  0  0  0  0  0  0  0
   -0.5854   24.8699   32.1232 H   0  0  0  0  0  0  0  0  0  0  0  0
    1.4873   25.2975   30.8237 H   0  0  0  0  0  0  0  0  0  0  0  0
  2  1  1  0
  3  2  1  0
  4  3  2  0
  5  3  1  0
  6  5  4  0
  7  6  4  0
  8  7  4  0
  9  8  4  0
 10  9  4  0
 11 10  4  0
 12 11  4  0
 13  9  4  0
 13 12  4  0
 13  5  4  0
  1 14  1  0
  1 15  1  0
  1 16  1  0
  6 17  1  0
  7 18  1  0
  8 19  1  0
M  END
