
     RDKit          3D

 37 38  0  0  0  0  0  0  0  0999 V2000
   -3.3200   24.0600   30.7740 O   0  0  0  0  0  0  0  0  0  0  0  0
   -3.6120   22.8890   30.7490 C   0  0  0  0  0  0  0  0  0  0  0  0
   -4.9450   22.5210   30.6970 N   0  0  0  0  0  0  0  0  0  0  0  0
   -5.4690   21.2570   30.5250 C   0  0  0  0  0  0  0  0  0  0  0  0
   -4.7270   20.3330   30.2360 O   0  0  0  0  0  0  0  0  0  0  0  0
   -6.9480   21.0320   30.7060 C   0  0  0  0  0  0  0  0  0  0  0  0
   -7.5460   19.8860   30.1940 C   0  0  0  0  0  0  0  0  0  0  0  0
   -6.7880   18.9790   29.5030 F   0  0  0  0  0  0  0  0  0  0  0  0
   -8.8820   19.6240   30.3620 C   0  0  0  0  0  0  0  0  0  0  0  0
   -9.6640   20.5240   31.0670 C   0  0  0  0  0  0  0  0  0  0  0  0
   -9.1070   21.6670   31.5970 C   0  0  0  0  0  0  0  0  0  0  0  0
   -7.7610   21.9070   31.4180 C   0  0  0  0  0  0  0  0  0  0  0  0
   -7.2440   23.0240   31.9660 F   0  0  0  0  0  0  0  0  0  0  0  0
   -2.6880   21.8930   30.7730 N   0  0  0  0  0  0  0  0  0  0  0  0
   -1.3000   21.9760   31.0760 C   0  0  0  0  0  0  0  0  0  0  0  0
   -0.7740   22.8900   31.9960 C   0  0  0  0  0  0  0  0  0  0  0  0
    0.5750   22.8780   32.3330 C   0  0  0  0  0  0  0  0  0  0  0  0
    1.0640   23.7750   33.2940 O   0  0  0  0  0  0  0  0  0  0  0  0
    1.6500   23.3060   34.5320 C   0  0  1  0  0  0  0  0  0  0  0  0
    2.4750   22.2560   34.3310 F   0  0  0  0  0  0  0  0  0  0  0  0
    2.3920   24.3260   35.0470 F   0  0  0  0  0  0  0  0  0  0  0  0
    0.5850   22.9000   35.5640 C   0  0  2  0  0  0  0  0  0  0  0  0
   -0.2760   23.9150   35.7340 F   0  0  0  0  0  0  0  0  0  0  0  0
    1.1580   22.5920   36.7440 F   0  0  0  0  0  0  0  0  0  0  0  0
   -0.0890   21.7900   35.1580 F   0  0  0  0  0  0  0  0  0  0  0  0
    1.4160   21.9580   31.7550 C   0  0  0  0  0  0  0  0  0  0  0  0
    0.9330   21.0530   30.8420 C   0  0  0  0  0  0  0  0  0  0  0  0
    2.0100   19.8810   30.1360 Cl  0  0  0  0  0  0  0  0  0  0  0  0
   -0.4340   21.0460   30.4940 C   0  0  0  0  0  0  0  0  0  0  0  0
   -1.0660   19.8750   29.3300 Cl  0  0  0  0  0  0  0  0  0  0  0  0
   -5.6292   23.2841   30.7992 H   0  0  0  0  0  0  0  0  0  0  0  0
   -9.3270   18.7100   29.9418 H   0  0  0  0  0  0  0  0  0  0  0  0
  -10.7370   20.3247   31.2046 H   0  0  0  0  0  0  0  0  0  0  0  0
   -9.7293   22.3806   32.1570 H   0  0  0  0  0  0  0  0  0  0  0  0
   -3.0389   20.9528   30.5410 H   0  0  0  0  0  0  0  0  0  0  0  0
   -1.4400   23.6316   32.4612 H   0  0  0  0  0  0  0  0  0  0  0  0
    2.4823   21.9463   32.0251 H   0  0  0  0  0  0  0  0  0  0  0  0
  2  1  2  0
  3  2  1  0
  4  3  1  0
  5  4  2  0
  6  4  1  0
  7  6  4  0
  8  7  1  0
  9  7  4  0
 10  9  4  0
 11 10  4  0
 12 11  4  0
 12  6  4  0
 13 12  1  0
 14  2  1  0
 15 14  1  0
 16 15  4  0
 17 16  4  0
 18 17  1  0
 19 18  1  0
 19 20  1  6
 21 19  1  0
 22 19  1  0
 22 23  1  1
 24 22  1  0
 25 22  1  0
 26 17  4  0
 27 26  4  0
 28 27  1  0
 29 27  4  0
 29 15  4  0
 30 29  1  0
  3 31  1  0
  9 32  1  0
 10 33  1  0
 11 34  1  0
 14 35  1  0
 16 36  1  0
 26 37  1  0
M  END
