@<TRIPOS>MOLECULE
EST
   44    47     1     0     0
SMALL
bcc


@<TRIPOS>ATOM
      1 C1           1.4930    19.8520    31.1940 c3         1 EST      -0.081100
      2 C2           1.6450    21.3890    31.0690 c3         1 EST      -0.033000
      3 C3           3.0630    21.8000    31.4880 c3         1 EST      -0.059400
      4 C4           3.2970    21.6100    32.9990 c3         1 EST      -0.068400
      5 C5           2.2170    22.2890    33.8810 c3         1 EST      -0.004400
      6 C6           2.3870    22.0810    35.3850 ca         1 EST      -0.099300
      7 C7           3.6640    21.9770    35.9660 ca         1 EST      -0.089000
      8 C8           3.8270    21.8290    37.3460 ca         1 EST      -0.224000
      9 C9           2.7080    21.7970    38.1650 ca         1 EST       0.131100
     10 O1           2.8170    21.6500    39.5160 oh         1 EST      -0.500100
     11 C10          1.4360    21.9200    37.6250 ca         1 EST      -0.164000
     12 C11          1.2620    22.0790    36.2390 ca         1 EST      -0.037300
     13 C12         -0.1500    22.1890    35.7170 c3         1 EST      -0.034100
     14 C13         -0.2410    22.6500    34.2660 c3         1 EST      -0.073400
     15 C14          0.7820    21.8950    33.4160 c3         1 EST      -0.045700
     16 C15          0.6470    22.2010    31.9230 c3         1 EST      -0.060700
     17 C16         -0.6930    21.9560    31.2380 c3         1 EST      -0.070400
     18 C17         -0.3440    21.8480    29.7410 c3         1 EST      -0.116400
     19 C18          1.1960    21.8030    29.6520 c3         1 EST       0.151100
     20 O2           1.6780    23.1020    29.3220 oh         1 EST      -0.604800
     21 H1           3.7590    21.5790    39.7410 ho         1 EST       0.421000
     22 H2           1.3420    23.3230    28.4370 ho         1 EST       0.402000
     23 H3           1.6940    19.4840    32.2040 hc         1 EST       0.035367
     24 H4           0.4920    19.5020    30.9240 hc         1 EST       0.035367
     25 H5           2.1990    19.3480    30.5230 hc         1 EST       0.035367
     26 H6           3.8110    21.2280    30.9250 hc         1 EST       0.049200
     27 H7           3.2430    22.8560    31.2520 hc         1 EST       0.049200
     28 H8           3.3570    20.5410    33.2390 hc         1 EST       0.038200
     29 H9           4.2860    22.0260    33.2240 hc         1 EST       0.038200
     30 H10          2.3300    23.3730    33.7290 hc         1 EST       0.054700
     31 H11          4.5610    22.0180    35.3550 ha         1 EST       0.131000
     32 H12          4.8280    21.7460    37.7560 ha         1 EST       0.130000
     33 H13          0.5750    21.8950    38.2880 ha         1 EST       0.145000
     34 H14         -0.6200    21.2010    35.8080 hc         1 EST       0.050700
     35 H15         -0.7240    22.8840    36.3420 hc         1 EST       0.050700
     36 H16         -1.2610    22.4800    33.9050 hc         1 EST       0.044200
     37 H17         -0.0570    23.7310    34.2040 hc         1 EST       0.044200
     38 H18          0.6230    20.8220    33.5840 hc         1 EST       0.054700
     39 H19          0.8630    23.2740    31.7970 hc         1 EST       0.064700
     40 H20         -1.1620    21.0290    31.5900 hc         1 EST       0.041700
     41 H21         -1.4000    22.7720    31.4210 hc         1 EST       0.041700
     42 H22         -0.7820    20.9290    29.3360 hc         1 EST       0.045200
     43 H23         -0.7630    22.6940    29.1850 hc         1 EST       0.045200
     44 H24          1.5420    21.1120    28.8770 h1         1 EST       0.035700
@<TRIPOS>BOND
     1     2     1 1   
     2     2     3 1   
     3     3     4 1   
     4     4     5 1   
     5     5     6 1   
     6     6     7 ar  
     7     7     8 ar  
     8     8     9 ar  
     9     9    10 1   
    10     9    11 ar  
    11    11    12 ar  
    12    12    13 1   
    13    13    14 1   
    14    14    15 1   
    15    15    16 1   
    16    16    17 1   
    17    17    18 1   
    18    18    19 1   
    19    19    20 1   
    20    16     2 1   
    21    19     2 1   
    22    15     5 1   
    23    12     6 ar  
    24    10    21 1   
    25    20    22 1   
    26     1    23 1   
    27     1    24 1   
    28     1    25 1   
    29     3    26 1   
    30     3    27 1   
    31     4    28 1   
    32     4    29 1   
    33     5    30 1   
    34     7    31 1   
    35     8    32 1   
    36    11    33 1   
    37    13    34 1   
    38    13    35 1   
    39    14    36 1   
    40    14    37 1   
    41    15    38 1   
    42    16    39 1   
    43    17    40 1   
    44    17    41 1   
    45    18    42 1   
    46    18    43 1   
    47    19    44 1   
@<TRIPOS>SUBSTRUCTURE
     1 EST         1 TEMP              0 ****  ****    0 ROOT
