@<TRIPOS>MOLECULE
WNX
   58    63     1     0     0
SMALL
bcc


@<TRIPOS>ATOM
      1 C1          19.0290   -12.7390   -18.0790 ca         1 WNX      -0.099000
      2 C2          21.0870   -10.0830   -14.6030 ca         1 WNX      -0.101000
      3 C3          20.3050    -9.5210   -13.5790 ca         1 WNX      -0.088000
      4 C4          20.1240   -10.1850   -12.3560 ca         1 WNX      -0.125000
      5 C5          20.7560   -11.4110   -12.2090 ca         1 WNX       0.131100
      6 C6          21.7420   -13.0980   -10.8280 c3         1 WNX       0.204400
      7 C7          22.0540   -13.9260   -12.0720 c3         1 WNX      -0.122000
      8 C8          20.9470   -14.9750   -12.3390 c3         1 WNX       0.140800
      9 C9          18.5310   -14.6180   -11.9020 c3         1 WNX       0.112800
     10 C10         17.3770   -13.7090   -12.3320 c3         1 WNX       0.203900
     11 C11         18.2110   -13.7030   -14.5860 c3         1 WNX       0.203900
     12 C12         18.4890   -11.8520   -19.0060 ca         1 WNX      -0.104000
     13 C13         19.3550   -14.6080   -14.1580 c3         1 WNX       0.112800
     14 C14         22.3150   -11.1320   -17.3850 ca         1 WNX      -0.154600
     15 C15         23.0070   -10.0050   -17.8190 ca         1 WNX      -0.050000
     16 C16         22.4540    -9.1320   -18.7510 ca         1 WNX      -0.117000
     17 C17         21.1910    -9.3820   -19.2660 ca         1 WNX      -0.075000
     18 C18         20.4840   -10.5070   -18.8580 ca         1 WNX      -0.046000
     19 C19         21.0340   -11.3920   -17.9210 ca         1 WNX       0.015000
     20 C20         20.2950   -12.5130   -17.5360 ca         1 WNX      -0.103000
     21 C21         19.2130   -10.7320   -19.3970 ca         1 WNX      -0.087000
     22 C22         22.9810   -11.9280   -16.4390 c          1 WNX       0.688900
     23 C23         22.4650   -12.1090   -15.1760 cc         1 WNX      -0.255400
     24 C24         22.7300   -13.1740   -14.3920 cd         1 WNX      -0.183300
     25 C25         23.5640   -14.4160   -14.7070 c3         1 WNX       0.060100
     26 C26         21.4870   -11.8820   -13.2340 ca         1 WNX      -0.290200
     27 C27         21.6760   -11.2780   -14.4290 ca         1 WNX      -0.012800
     28 N1          22.1210   -13.0380   -13.2150 na         1 WNX       0.496600
     29 N2          19.6940   -14.3240   -12.7640 n3         1 WNX      -0.536600
     30 O1          24.1330   -12.2840   -16.7090 o          1 WNX      -0.597100
     31 O2          20.6440   -12.1660   -11.0450 os         1 WNX      -0.292900
     32 O3          17.0730   -13.9190   -13.7360 os         1 WNX      -0.409600
     33 H1          18.4540   -13.6250   -17.7720 ha         1 WNX       0.103000
     34 H2          21.2170    -9.5420   -15.5520 ha         1 WNX       0.115000
     35 H3          19.8260    -8.5440   -13.7390 ha         1 WNX       0.103000
     36 H4          19.5100    -9.7540   -11.5520 ha         1 WNX       0.119000
     37 H5          21.4710   -13.7800   -10.0080 h1         1 WNX       0.024700
     38 H6          22.6390   -12.5100   -10.5820 h1         1 WNX       0.024700
     39 H7          23.0090   -14.4480   -11.9120 h1         1 WNX       0.057700
     40 H8          21.2840   -15.6590   -13.1320 h1         1 WNX       0.025200
     41 H9          20.7560   -15.5280   -11.4080 h1         1 WNX       0.025200
     42 H10         18.7880   -14.4220   -10.8500 h1         1 WNX       0.018200
     43 H11         18.2410   -15.6740   -12.0020 h1         1 WNX       0.018200
     44 H12         16.4870   -13.9410   -11.7280 h1         1 WNX       0.020950
     45 H13         17.6690   -12.6590   -12.1800 h1         1 WNX       0.020950
     46 H14         18.5290   -12.6530   -14.5100 h1         1 WNX       0.020950
     47 H15         17.9360   -13.9340   -15.6260 h1         1 WNX       0.020950
     48 H16         17.4900   -12.0370   -19.4280 ha         1 WNX       0.105000
     49 H17         19.0490   -15.6600   -14.2560 h1         1 WNX       0.018200
     50 H18         20.2310   -14.4250   -14.7970 h1         1 WNX       0.018200
     51 H19         24.0110    -9.8000   -17.4180 ha         1 WNX       0.117000
     52 H20         23.0170    -8.2460   -19.0780 ha         1 WNX       0.107000
     53 H21         20.7480    -8.6900   -19.9980 ha         1 WNX       0.106000
     54 H22         20.7120   -13.2200   -16.8030 ha         1 WNX       0.114000
     55 H23         18.7890   -10.0260   -20.1260 ha         1 WNX       0.108000
     56 H24         23.8830   -14.8910   -13.7680 hc         1 WNX       0.023033
     57 H25         22.9590   -15.1260   -15.2900 hc         1 WNX       0.023033
     58 H26         24.4500   -14.1240   -15.2900 hc         1 WNX       0.023033
@<TRIPOS>BOND
     1     3     2 ar  
     2     4     3 ar  
     3     5     4 ar  
     4     7     6 1   
     5     8     7 1   
     6    10     9 1   
     7    12     1 ar  
     8    13    11 1   
     9    15    14 ar  
    10    16    15 ar  
    11    17    16 ar  
    12    18    17 ar  
    13    19    18 ar  
    14    19    14 ar  
    15    20    19 ar  
    16    20     1 ar  
    17    21    12 ar  
    18    21    18 ar  
    19    22    14 1   
    20    23    22 1   
    21    24    23 2   
    22    25    24 1   
    23    26     5 ar  
    24    27    26 ar  
    25    27     2 ar  
    26    27    23 1   
    27    28    26 1   
    28    28    24 1   
    29    28     7 1   
    30    29    13 1   
    31    29     9 1   
    32    29     8 1   
    33    30    22 2   
    34    31     5 1   
    35    31     6 1   
    36    32    11 1   
    37    32    10 1   
    38     1    33 1   
    39     2    34 1   
    40     3    35 1   
    41     4    36 1   
    42     6    37 1   
    43     6    38 1   
    44     7    39 1   
    45     8    40 1   
    46     8    41 1   
    47     9    42 1   
    48     9    43 1   
    49    10    44 1   
    50    10    45 1   
    51    11    46 1   
    52    11    47 1   
    53    12    48 1   
    54    13    49 1   
    55    13    50 1   
    56    15    51 1   
    57    16    52 1   
    58    17    53 1   
    59    20    54 1   
    60    21    55 1   
    61    25    56 1   
    62    25    57 1   
    63    25    58 1   
@<TRIPOS>SUBSTRUCTURE
     1 WNX         1 TEMP              0 ****  ****    0 ROOT
