@<TRIPOS>MOLECULE
A8S
   38    38     1     0     0
SMALL
bcc


@<TRIPOS>ATOM
      1 C1           3.3590    22.1480    37.1680 c          1 A8S       0.889800
      2 C2           1.9880    22.0070    37.0880 ce         1 A8S      -0.145200
      3 C3           1.1620    22.0760    36.0090 cf         1 A8S      -0.158200
      4 C4           1.6320    22.2780    34.7650 cf         1 A8S      -0.038000
      5 C5           0.8060    22.3300    33.5240 c2         1 A8S      -0.297200
      6 C6          -0.3310    21.9170    36.1790 c3         1 A8S      -0.044900
      7 C7           1.4650    22.7090    32.1850 c3         1 A8S       0.237200
      8 O1           2.9020    22.8230    32.2410 oh         1 A8S      -0.608800
      9 C8           1.2700    21.5980    31.1510 c2         1 A8S       0.015600
     10 C9          -0.1620    21.5250    30.6990 ce         1 A8S      -0.299200
     11 C10         -0.9130    22.6700    30.5140 c          1 A8S       0.581300
     12 O2          -1.9320    22.6480    29.6420 o          1 A8S      -0.576100
     13 C11         -0.6150    23.9090    31.3060 c3         1 A8S      -0.172400
     14 O3           4.1200    22.2980    36.1660 o          1 A8S      -0.831300
     15 C12          0.9080    24.0310    31.5930 c3         1 A8S      -0.060000
     16 O4           3.8540    22.1080    38.3270 o          1 A8S      -0.831300
     17 C13          2.0400    20.2930    31.4560 c3         1 A8S      -0.072900
     18 C14          1.6310    24.4240    30.2870 c3         1 A8S      -0.087100
     19 C15          1.0030    25.2220    32.5410 c3         1 A8S      -0.087100
     20 H1           1.4850    21.8080    38.0460 ha         1 A8S       0.105000
     21 H2           2.7170    22.4170    34.6530 ha         1 A8S       0.181000
     22 H3          -0.2690    22.0990    33.5650 ha         1 A8S       0.117000
     23 H4          -0.5770    21.8910    37.2510 hc         1 A8S       0.022700
     24 H5          -0.8460    22.7650    35.7050 hc         1 A8S       0.022700
     25 H6          -0.6560    20.9790    35.7050 hc         1 A8S       0.022700
     26 H7           3.1950    22.8460    33.1870 ho         1 A8S       0.435000
     27 H8          -0.6200    20.5430    30.5120 ha         1 A8S       0.138000
     28 H9          -0.9460    24.7890    30.7350 hc         1 A8S       0.067200
     29 H10         -1.1500    23.8500    32.2650 hc         1 A8S       0.067200
     30 H11          2.1190    20.1600    32.5450 hc         1 A8S       0.057700
     31 H12          1.5010    19.4390    31.0200 hc         1 A8S       0.057700
     32 H13          3.0480    20.3520    31.0200 hc         1 A8S       0.057700
     33 H14          2.5740    24.9360    30.5300 hc         1 A8S       0.038867
     34 H15          1.8460    23.5190    29.7000 hc         1 A8S       0.038867
     35 H16          0.9880    25.0970    29.7000 hc         1 A8S       0.038867
     36 H17          0.9750    24.8660    33.5810 hc         1 A8S       0.038867
     37 H18          1.9470    25.7580    32.3630 hc         1 A8S       0.038867
     38 H19          0.1560    25.9010    32.3630 hc         1 A8S       0.038867
@<TRIPOS>BOND
     1     2     1 1   
     2     3     2 2   
     3     4     3 1   
     4     5     4 2   
     5     6     3 1   
     6     7     5 1   
     7     7     8 1   
     8     9     7 1   
     9    10     9 2   
    10    11    10 1   
    11    12    11 2   
    12    13    11 1   
    13    14     1 1   
    14    15    13 1   
    15    15     7 1   
    16    16     1 1   
    17    17     9 1   
    18    15    18 1   
    19    19    15 1   
    20     2    20 1   
    21     4    21 1   
    22     5    22 1   
    23     6    23 1   
    24     6    24 1   
    25     6    25 1   
    26     8    26 1   
    27    10    27 1   
    28    13    28 1   
    29    13    29 1   
    30    17    30 1   
    31    17    31 1   
    32    17    32 1   
    33    18    33 1   
    34    18    34 1   
    35    18    35 1   
    36    19    36 1   
    37    19    37 1   
    38    19    38 1   
@<TRIPOS>SUBSTRUCTURE
     1 A8S         1 TEMP              0 ****  ****    0 ROOT
