@<TRIPOS>MOLECULE
FLU
   30    30     1     0     0
SMALL
bcc


@<TRIPOS>ATOM
      1 C1           1.2100    22.1110    32.5360 ca         1 FLU       0.065600
      2 C2           2.5580    21.7670    32.3740 ca         1 FLU      -0.144000
      3 C3           3.4470    21.8400    33.4480 ca         1 FLU      -0.075000
      4 C4           2.9790    22.2580    34.7000 ca         1 FLU      -0.106200
      5 C5           1.6330    22.5880    34.9060 ca         1 FLU      -0.125300
      6 C6           0.7600    22.5170    33.7990 ca         1 FLU      -0.072000
      7 C7          -0.1490    23.0520    30.6480 c          1 FLU       0.656100
      8 O1           0.0330    24.2480    30.8490 o          1 FLU      -0.546100
      9 N1           0.3850    22.0150    31.3970 ns         1 FLU      -0.465100
     10 H1           0.7520    21.2970    30.7860 hn         1 FLU       0.308500
     11 C8          -0.9330    21.0290    29.3770 c3         1 FLU      -0.094600
     12 C9          -1.0230    22.5490    29.4940 c3         1 FLU      -0.129700
     13 C10         -2.4780    22.9790    29.6770 c3         1 FLU      -0.094600
     14 C11          1.1010    23.0070    36.2520 c3         1 FLU       0.704200
     15 F1          -0.1800    23.4590    36.1960 f          1 FLU      -0.220300
     16 F2           1.8130    24.0270    36.8090 f          1 FLU      -0.220300
     17 F3           1.1260    22.0010    37.1640 f          1 FLU      -0.220300
     18 N2           3.9520    22.3500    35.7810 no         1 FLU       0.271200
     19 O2           4.0820    21.3560    36.5060 o          1 FLU      -0.168500
     20 O3           4.5970    23.4000    35.8680 o          1 FLU      -0.168500
     21 H2           2.9420    21.4610    31.4030 ha         1 FLU       0.149000
     22 H3           4.4950    21.5880    33.3010 ha         1 FLU       0.166000
     23 H4          -0.2910    22.7840    33.9140 ha         1 FLU       0.175000
     24 H5          -1.2530    20.5040    30.2840 hc         1 FLU       0.045700
     25 H6          -1.5990    20.6860    28.5750 hc         1 FLU       0.045700
     26 H7           0.0690    20.6930    29.0860 hc         1 FLU       0.045700
     27 H8          -0.6270    22.9930    28.5730 hc         1 FLU       0.079700
     28 H9          -2.8980    22.5650    30.5990 hc         1 FLU       0.045700
     29 H10         -2.5540    24.0700    29.7430 hc         1 FLU       0.045700
     30 H11         -3.0950    22.6470    28.8360 hc         1 FLU       0.045700
@<TRIPOS>BOND
     1    11    12 1   
     2    12    13 1   
     3    12     7 1   
     4     7     8 2   
     5     7     9 1   
     6     9     1 1   
     7     1     2 ar  
     8     2     3 ar  
     9     3     4 ar  
    10     4    18 1   
    11    18    19 1   
    12    18    20 1   
    13     4     5 ar  
    14     5    14 1   
    15    14    15 1   
    16    14    16 1   
    17    14    17 1   
    18     5     6 ar  
    19     6     1 ar  
    20     9    10 1   
    21     2    21 1   
    22     3    22 1   
    23     6    23 1   
    24    11    24 1   
    25    11    25 1   
    26    11    26 1   
    27    12    27 1   
    28    13    28 1   
    29    13    29 1   
    30    13    30 1   
@<TRIPOS>SUBSTRUCTURE
     1 FLU         1 TEMP              0 ****  ****    0 ROOT
