@<TRIPOS>MOLECULE
EST
   44    47     1     0     0
SMALL
bcc


@<TRIPOS>ATOM
      1 C1           2.3210    21.9020    35.3330 c3         1 EST      -0.081100
      2 C2           3.1740    22.7850    34.3860 c3         1 EST      -0.034000
      3 C3           2.5180    24.1660    34.2440 c3         1 EST      -0.059400
      4 C4           1.1930    24.0990    33.4610 c3         1 EST      -0.068400
      5 C5           1.3210    23.3780    32.0920 c3         1 EST      -0.004400
      6 C6           0.0170    23.2480    31.3070 ca         1 EST      -0.099300
      7 C7          -0.9780    24.2410    31.3770 ca         1 EST      -0.089000
      8 C8          -2.1540    24.1470    30.6280 ca         1 EST      -0.224000
      9 C9          -2.3430    23.0610    29.7880 ca         1 EST       0.131100
     10 O1          -3.4750    22.9250    29.0410 oh         1 EST      -0.500100
     11 C10         -1.3700    22.0770    29.6790 ca         1 EST      -0.164000
     12 C11         -0.1790    22.1670    30.4200 ca         1 EST      -0.037300
     13 C12          0.8280    21.0530    30.2670 c3         1 EST      -0.034100
     14 C13          2.1960    21.3670    30.8650 c3         1 EST      -0.073400
     15 C14          2.0260    21.9970    32.2490 c3         1 EST      -0.045700
     16 C15          3.3600    22.2040    32.9680 c3         1 EST      -0.060700
     17 C16          4.2720    21.0010    33.1910 c3         1 EST      -0.070400
     18 C17          5.1980    21.4320    34.3450 c3         1 EST      -0.116400
     19 C18          4.6320    22.7610    34.8880 c3         1 EST       0.150100
     20 O2           5.3800    23.8410    34.3380 oh         1 EST      -0.604800
     21 H1          -4.0540    23.6840    29.2210 ho         1 EST       0.421000
     22 H2           6.2930    23.7590    34.6630 ho         1 EST       0.402000
     23 H3           2.2770    22.3560    36.3310 hc         1 EST       0.035367
     24 H4           1.2900    21.7820    34.9910 hc         1 EST       0.035367
     25 H5           2.7330    20.8960    35.4590 hc         1 EST       0.035367
     26 H6           2.3400    24.6100    35.2310 hc         1 EST       0.049200
     27 H7           3.1860    24.8560    33.7130 hc         1 EST       0.049200
     28 H8           0.4210    23.6110    34.0680 hc         1 EST       0.038200
     29 H9           0.8560    25.1320    33.3140 hc         1 EST       0.038200
     30 H10          1.9680    24.0140    31.4670 hc         1 EST       0.054700
     31 H11         -0.8530    25.1140    32.0110 ha         1 EST       0.131000
     32 H12         -2.9010    24.9300    30.7150 ha         1 EST       0.130000
     33 H13         -1.5400    21.2370    29.0100 ha         1 EST       0.145000
     34 H14          0.4200    20.1610    30.7600 hc         1 EST       0.050700
     35 H15          0.9570    20.8120    29.2050 hc         1 EST       0.050700
     36 H16          2.7790    20.4410    30.9180 hc         1 EST       0.044200
     37 H17          2.7450    22.0510    30.2040 hc         1 EST       0.044200
     38 H18          1.3920    21.3250    32.8410 hc         1 EST       0.054700
     39 H19          3.9410    22.9200    32.3640 hc         1 EST       0.064700
     40 H20          3.7010    20.1090    33.4700 hc         1 EST       0.041700
     41 H21          4.8490    20.7550    32.2930 hc         1 EST       0.041700
     42 H22          5.1850    20.6600    35.1230 hc         1 EST       0.045200
     43 H23          6.2300    21.5390    33.9930 hc         1 EST       0.045200
     44 H24          4.7080    22.8240    35.9790 h1         1 EST       0.035700
@<TRIPOS>BOND
     1     2     1 1   
     2     2     3 1   
     3     3     4 1   
     4     4     5 1   
     5     5     6 1   
     6     6     7 ar  
     7     7     8 ar  
     8     8     9 ar  
     9     9    10 1   
    10     9    11 ar  
    11    11    12 ar  
    12    12    13 1   
    13    13    14 1   
    14    14    15 1   
    15    15    16 1   
    16    16    17 1   
    17    17    18 1   
    18    18    19 1   
    19    19    20 1   
    20    16     2 1   
    21    19     2 1   
    22    15     5 1   
    23    12     6 ar  
    24    10    21 1   
    25    20    22 1   
    26     1    23 1   
    27     1    24 1   
    28     1    25 1   
    29     3    26 1   
    30     3    27 1   
    31     4    28 1   
    32     4    29 1   
    33     5    30 1   
    34     7    31 1   
    35     8    32 1   
    36    11    33 1   
    37    13    34 1   
    38    13    35 1   
    39    14    36 1   
    40    14    37 1   
    41    15    38 1   
    42    16    39 1   
    43    17    40 1   
    44    17    41 1   
    45    18    42 1   
    46    18    43 1   
    47    19    44 1   
@<TRIPOS>SUBSTRUCTURE
     1 EST         1 TEMP              0 ****  ****    0 ROOT
