@<TRIPOS>MOLECULE
IMP
   34    36     1     0     0
SMALL
bcc


@<TRIPOS>ATOM
      1 C1           2.3070    23.6200    33.7300 ca         1 IMP       0.126100
      2 C2           1.7730    23.8120    32.4480 ca         1 IMP       0.049100
      3 O1           2.3550    24.4740    31.4030 os         1 IMP      -0.172200
      4 C3           1.4990    24.4220    30.3530 cc         1 IMP      -0.011900
      5 C4           0.3590    23.7350    30.6950 cd         1 IMP      -0.188200
      6 C5           0.5230    23.3350    32.0480 ca         1 IMP      -0.106800
      7 C6          -0.2650    22.6170    32.9690 ca         1 IMP      -0.055000
      8 C7           0.2290    22.4030    34.2630 ca         1 IMP      -0.129800
      9 C8          -0.5490    21.6680    35.2480 cc         1 IMP      -0.032200
     10 C9          -0.0570    21.4780    36.4760 cd         1 IMP      -0.259200
     11 C10          1.2610    21.9880    36.8870 c          1 IMP       0.741800
     12 O2           1.6770    21.7970    38.0230 o          1 IMP      -0.559500
     13 O3           1.9820    22.6830    35.9300 os         1 IMP      -0.322200
     14 C11          1.4860    22.9000    34.6170 ca         1 IMP       0.148100
     15 O4           3.5270    24.0500    34.2220 os         1 IMP      -0.296900
     16 C12          4.6850    23.7010    33.4640 c3         1 IMP       0.172600
     17 C13          4.1430    21.0720    31.8090 c3         1 IMP      -0.060400
     18 C14          4.8110    21.1540    33.1540 c2         1 IMP      -0.090400
     19 C15          5.2290    19.8210    33.7190 c3         1 IMP      -0.060400
     20 C16          5.0450    22.2910    33.8400 c2         1 IMP      -0.218200
     21 H1           1.8360    24.9130    29.4510 h4         1 IMP       0.198000
     22 H2          -0.4870    23.5470    30.0500 ha         1 IMP       0.167000
     23 H3          -1.2390    22.2410    32.6700 ha         1 IMP       0.147000
     24 H4          -1.5240    21.2810    34.9730 ha         1 IMP       0.145000
     25 H5          -0.6080    20.9360    37.2350 ha         1 IMP       0.162000
     26 H6           5.4980    24.3680    33.7710 h1         1 IMP       0.061700
     27 H7           4.5510    23.8520    32.3910 h1         1 IMP       0.061700
     28 H8           3.1810    20.5570    31.8980 hc         1 IMP       0.042033
     29 H9           3.9620    22.0480    31.3560 hc         1 IMP       0.042033
     30 H10          4.7720    20.5090    31.1110 hc         1 IMP       0.042033
     31 H11          5.7050    19.9150    34.7010 hc         1 IMP       0.042033
     32 H12          4.3560    19.1690    33.8340 hc         1 IMP       0.042033
     33 H13          5.9440    19.3310    33.0490 hc         1 IMP       0.042033
     34 H14          5.5190    22.2180    34.8180 ha         1 IMP       0.133000
@<TRIPOS>BOND
     1    17    18 1   
     2    18    19 1   
     3    18    20 2   
     4    20    16 1   
     5    16    15 1   
     6    15     1 1   
     7     1     2 ar  
     8     2     3 1   
     9     3     4 1   
    10     4     5 2   
    11     5     6 1   
    12     6     7 ar  
    13     7     8 ar  
    14     8     9 1   
    15     9    10 2   
    16    10    11 1   
    17    11    12 2   
    18    11    13 1   
    19    13    14 1   
    20    14     1 ar  
    21     6     2 ar  
    22    14     8 ar  
    23     4    21 1   
    24     5    22 1   
    25     7    23 1   
    26     9    24 1   
    27    10    25 1   
    28    16    26 1   
    29    16    27 1   
    30    17    28 1   
    31    17    29 1   
    32    17    30 1   
    33    19    31 1   
    34    19    32 1   
    35    19    33 1   
    36    20    34 1   
@<TRIPOS>SUBSTRUCTURE
     1 IMP         1 TEMP              0 ****  ****    0 ROOT
