
     RDKit          3D

 34 35  0  0  0  0  0  0  0  0999 V2000
    3.4944   -0.7033    0.3746 C   0  0  0  0  0  0  0  0  0  0  0  0
    2.8482    0.6066    0.0188 C   0  0  0  0  0  0  0  0  0  0  0  0
    3.6980    1.4975   -0.8497 C   0  0  0  0  0  0  0  0  0  0  0  0
    1.6179    1.0000    0.4046 C   0  0  0  0  0  0  0  0  0  0  0  0
    0.6276    0.2653    1.2711 C   0  0  0  0  0  0  0  0  0  0  0  0
   -0.6048   -0.1631    0.5014 C   0  0  0  0  0  0  0  0  0  0  0  0
   -0.6954   -1.4431   -0.0798 C   0  0  0  0  0  0  0  0  0  0  0  0
    0.3728   -2.2767    0.1253 O   0  0  0  0  0  0  0  0  0  0  0  0
    0.4188   -3.4848   -0.6221 C   0  0  0  0  0  0  0  0  0  0  0  0
   -1.8434   -1.8011   -0.7998 C   0  0  0  0  0  0  0  0  0  0  0  0
   -2.8983   -0.8965   -0.9632 C   0  0  0  0  0  0  0  0  0  0  0  0
   -2.8185    0.3777   -0.4074 C   0  0  0  0  0  0  0  0  0  0  0  0
   -3.8928    1.3453   -0.5629 C   0  0  0  0  0  0  0  0  0  0  0  0
   -3.7734    2.5597   -0.0190 C   0  0  0  0  0  0  0  0  0  0  0  0
   -2.5824    2.9667    0.7436 C   0  0  0  0  0  0  0  0  0  0  0  0
   -2.5014    4.0897    1.2272 O   0  0  0  0  0  0  0  0  0  0  0  0
   -1.5766    2.0215    0.8805 O   0  0  0  0  0  0  0  0  0  0  0  0
   -1.6770    0.7278    0.3141 C   0  0  0  0  0  0  0  0  0  0  0  0
    2.8792   -1.3371    1.0154 H   0  0  0  0  0  0  0  0  0  0  0  0
    4.4369   -0.5251    0.9031 H   0  0  0  0  0  0  0  0  0  0  0  0
    3.7123   -1.2730   -0.5350 H   0  0  0  0  0  0  0  0  0  0  0  0
    3.9361    0.9927   -1.7917 H   0  0  0  0  0  0  0  0  0  0  0  0
    4.6350    1.7423   -0.3389 H   0  0  0  0  0  0  0  0  0  0  0  0
    3.1977    2.4401   -1.0954 H   0  0  0  0  0  0  0  0  0  0  0  0
    1.2662    1.9789    0.0777 H   0  0  0  0  0  0  0  0  0  0  0  0
    0.3323    0.9285    2.0947 H   0  0  0  0  0  0  0  0  0  0  0  0
    1.0725   -0.5944    1.7806 H   0  0  0  0  0  0  0  0  0  0  0  0
    1.3814   -3.9647   -0.4210 H   0  0  0  0  0  0  0  0  0  0  0  0
    0.3626   -3.2905   -1.6984 H   0  0  0  0  0  0  0  0  0  0  0  0
   -0.3692   -4.1735   -0.3012 H   0  0  0  0  0  0  0  0  0  0  0  0
   -1.9513   -2.7850   -1.2452 H   0  0  0  0  0  0  0  0  0  0  0  0
   -3.7751   -1.2034   -1.5284 H   0  0  0  0  0  0  0  0  0  0  0  0
   -4.7796    1.0672   -1.1216 H   0  0  0  0  0  0  0  0  0  0  0  0
   -4.5507    3.3079   -0.1136 H   0  0  0  0  0  0  0  0  0  0  0  0
  1  2  1  0
  2  3  1  0
  2  4  2  3
  4  5  1  0
  5  6  1  0
  6  7  4  0
  7  8  1  0
  8  9  1  0
  7 10  4  0
 10 11  4  0
 11 12  4  0
 12 13  1  0
 13 14  2  0
 14 15  1  0
 15 16  2  0
 15 17  1  0
 17 18  1  0
 18  6  4  0
 18 12  4  0
  1 19  1  0
  1 20  1  0
  1 21  1  0
  3 22  1  0
  3 23  1  0
  3 24  1  0
  4 25  1  0
  5 26  1  0
  5 27  1  0
  9 28  1  0
  9 29  1  0
  9 30  1  0
 10 31  1  0
 11 32  1  0
 13 33  1  0
 14 34  1  0
M  END
