
     RDKit          3D

 34 36  0  0  0  0  0  0  0  0999 V2000
    3.6659   -1.4914    0.1522 C   0  0  0  0  0  0  0  0  0  0  0  0
    3.6440    0.0098    0.0728 C   0  0  0  0  0  0  0  0  0  0  0  0
    4.9710    0.6610    0.3677 C   0  0  0  0  0  0  0  0  0  0  0  0
    2.5661    0.7630   -0.2244 C   0  0  0  0  0  0  0  0  0  0  0  0
    1.1696    0.3204   -0.5479 C   0  0  0  0  0  0  0  0  0  0  0  0
    0.3014    0.9296    0.4160 O   0  0  0  0  0  0  0  0  0  0  0  0
   -0.9464    0.3569    0.3621 C   0  0  0  0  0  0  0  0  0  0  0  0
   -1.3079   -0.6486    1.2761 C   0  0  0  0  0  0  0  0  0  0  0  0
   -0.6684   -1.3391    2.3408 C   0  0  0  0  0  0  0  0  0  0  0  0
   -1.5925   -2.2284    2.8380 C   0  0  0  0  0  0  0  0  0  0  0  0
   -2.7631   -2.1351    2.1538 O   0  0  0  0  0  0  0  0  0  0  0  0
   -2.5943   -1.1711    1.2065 C   0  0  0  0  0  0  0  0  0  0  0  0
   -3.5671   -0.7572    0.2950 C   0  0  0  0  0  0  0  0  0  0  0  0
   -3.2016    0.2615   -0.5944 C   0  0  0  0  0  0  0  0  0  0  0  0
   -4.1505    0.7754   -1.5717 C   0  0  0  0  0  0  0  0  0  0  0  0
   -3.7812    1.7518   -2.4056 C   0  0  0  0  0  0  0  0  0  0  0  0
   -2.4323    2.3414   -2.3840 C   0  0  0  0  0  0  0  0  0  0  0  0
   -2.1237    3.2272   -3.1723 O   0  0  0  0  0  0  0  0  0  0  0  0
   -1.5471    1.8388   -1.4432 O   0  0  0  0  0  0  0  0  0  0  0  0
   -1.9144    0.8051   -0.5508 C   0  0  0  0  0  0  0  0  0  0  0  0
    2.6981   -1.9554   -0.0463 H   0  0  0  0  0  0  0  0  0  0  0  0
    3.9791   -1.8094    1.1524 H   0  0  0  0  0  0  0  0  0  0  0  0
    4.3777   -1.8951   -0.5756 H   0  0  0  0  0  0  0  0  0  0  0  0
    4.9231    1.7531    0.3028 H   0  0  0  0  0  0  0  0  0  0  0  0
    5.7276    0.3190   -0.3462 H   0  0  0  0  0  0  0  0  0  0  0  0
    5.3035    0.4028    1.3785 H   0  0  0  0  0  0  0  0  0  0  0  0
    2.6824    1.8467   -0.2442 H   0  0  0  0  0  0  0  0  0  0  0  0
    0.9145    0.6805   -1.5517 H   0  0  0  0  0  0  0  0  0  0  0  0
    1.0641   -0.7684   -0.5349 H   0  0  0  0  0  0  0  0  0  0  0  0
    0.3428   -1.1974    2.6959 H   0  0  0  0  0  0  0  0  0  0  0  0
   -1.5754   -2.9586    3.6353 H   0  0  0  0  0  0  0  0  0  0  0  0
   -4.5530   -1.2069    0.2996 H   0  0  0  0  0  0  0  0  0  0  0  0
   -5.1514    0.3583   -1.6080 H   0  0  0  0  0  0  0  0  0  0  0  0
   -4.4606    2.1597   -3.1443 H   0  0  0  0  0  0  0  0  0  0  0  0
  1  2  1  0
  2  3  1  0
  2  4  2  3
  4  5  1  0
  5  6  1  0
  6  7  1  0
  7  8  4  0
  8  9  4  0
  9 10  4  0
 10 11  4  0
 11 12  4  0
 12 13  4  0
 13 14  4  0
 14 15  1  0
 15 16  2  0
 16 17  1  0
 17 18  2  0
 17 19  1  0
 19 20  1  0
 20  7  4  0
 12  8  4  0
 20 14  4  0
  1 21  1  0
  1 22  1  0
  1 23  1  0
  3 24  1  0
  3 25  1  0
  3 26  1  0
  4 27  1  0
  5 28  1  0
  5 29  1  0
  9 30  1  0
 10 31  1  0
 13 32  1  0
 15 33  1  0
 16 34  1  0
M  END
