
     RDKit          3D

 20 22  0  0  0  0  0  0  0  0999 V2000
   -4.2732    0.6348    1.4510 O   0  0  0  0  0  0  0  0  0  0  0  0
   -3.2151    0.3553    0.8999 C   0  0  0  0  0  0  0  0  0  0  0  0
   -3.2006   -0.4360   -0.3424 C   0  0  0  0  0  0  0  0  0  0  0  0
   -2.0687   -0.7616   -0.9738 C   0  0  0  0  0  0  0  0  0  0  0  0
   -0.7901   -0.3284   -0.4308 C   0  0  0  0  0  0  0  0  0  0  0  0
    0.4186   -0.6517   -1.0667 C   0  0  0  0  0  0  0  0  0  0  0  0
    1.6255   -0.2041   -0.4934 C   0  0  0  0  0  0  0  0  0  0  0  0
    3.0040   -0.3167   -0.8169 C   0  0  0  0  0  0  0  0  0  0  0  0
    3.6912    0.3571    0.1665 C   0  0  0  0  0  0  0  0  0  0  0  0
    2.8315    0.8804    1.0787 O   0  0  0  0  0  0  0  0  0  0  0  0
    1.5742    0.5412    0.6808 C   0  0  0  0  0  0  0  0  0  0  0  0
    0.3995    0.8831    1.3423 C   0  0  0  0  0  0  0  0  0  0  0  0
   -0.7771    0.4234    0.7468 C   0  0  0  0  0  0  0  0  0  0  0  0
   -1.9849    0.7579    1.4001 O   0  0  0  0  0  0  0  0  0  0  0  0
   -4.1707   -0.7402   -0.7162 H   0  0  0  0  0  0  0  0  0  0  0  0
   -2.0862   -1.3455   -1.8876 H   0  0  0  0  0  0  0  0  0  0  0  0
    0.4354   -1.2347   -1.9826 H   0  0  0  0  0  0  0  0  0  0  0  0
    3.4429   -0.8263   -1.6627 H   0  0  0  0  0  0  0  0  0  0  0  0
    4.7393    0.5470    0.3525 H   0  0  0  0  0  0  0  0  0  0  0  0
    0.4048    1.4652    2.2544 H   0  0  0  0  0  0  0  0  0  0  0  0
  1  2  2  0
  2  3  1  0
  3  4  2  0
  4  5  1  0
  5  6  4  0
  6  7  4  0
  7  8  4  0
  8  9  4  0
  9 10  4  0
 10 11  4  0
 11 12  4  0
 12 13  4  0
 13 14  1  0
 14  2  1  0
 13  5  4  0
 11  7  4  0
  3 15  1  0
  4 16  1  0
  6 17  1  0
  8 18  1  0
  9 19  1  0
 12 20  1  0
M  END
