
     RDKit          3D

 20 22  0  0  0  0  0  0  0  0999 V2000
   -2.8497   -2.9089   -0.3002 O   0  0  0  0  0  0  0  0  0  0  0  0
   -2.2684   -1.8372   -0.1774 C   0  0  0  0  0  0  0  0  0  0  0  0
   -3.0251   -0.5873    0.0032 C   0  0  0  0  0  0  0  0  0  0  0  0
   -2.4287    0.6004    0.1406 C   0  0  0  0  0  0  0  0  0  0  0  0
   -0.9759    0.6881    0.1140 C   0  0  0  0  0  0  0  0  0  0  0  0
   -0.3215    1.9182    0.2553 C   0  0  0  0  0  0  0  0  0  0  0  0
    1.0777    2.0046    0.2300 C   0  0  0  0  0  0  0  0  0  0  0  0
    1.7761    0.8110    0.0581 C   0  0  0  0  0  0  0  0  0  0  0  0
    3.1311    0.6865    0.0068 O   0  0  0  0  0  0  0  0  0  0  0  0
    3.4006   -0.6340   -0.1702 C   0  0  0  0  0  0  0  0  0  0  0  0
    2.2351   -1.3628   -0.2336 C   0  0  0  0  0  0  0  0  0  0  0  0
    1.1725   -0.4323   -0.0862 C   0  0  0  0  0  0  0  0  0  0  0  0
   -0.2307   -0.4881   -0.0568 C   0  0  0  0  0  0  0  0  0  0  0  0
   -0.8858   -1.7338   -0.2001 O   0  0  0  0  0  0  0  0  0  0  0  0
   -4.1035   -0.6895    0.0181 H   0  0  0  0  0  0  0  0  0  0  0  0
   -3.0114    1.5058    0.2723 H   0  0  0  0  0  0  0  0  0  0  0  0
   -0.8946    2.8341    0.3881 H   0  0  0  0  0  0  0  0  0  0  0  0
    1.5978    2.9491    0.3380 H   0  0  0  0  0  0  0  0  0  0  0  0
    4.4490   -0.8915   -0.2307 H   0  0  0  0  0  0  0  0  0  0  0  0
    2.1554   -2.4322   -0.3692 H   0  0  0  0  0  0  0  0  0  0  0  0
  1  2  2  0
  2  3  1  0
  3  4  2  0
  4  5  1  0
  5  6  4  0
  6  7  4  0
  7  8  4  0
  8  9  4  0
  9 10  4  0
 10 11  4  0
 11 12  4  0
 12 13  4  0
 13 14  1  0
 14  2  1  0
 13  5  4  0
 12  8  4  0
  3 15  1  0
  4 16  1  0
  6 17  1  0
  7 18  1  0
 10 19  1  0
 11 20  1  0
M  END
