
     RDKit          3D

 24 26  0  0  0  0  0  0  0  0999 V2000
   -1.1226    2.4675    0.9509 C   0  0  0  0  0  0  0  0  0  0  0  0
   -0.8154    1.9155   -0.3304 O   0  0  0  0  0  0  0  0  0  0  0  0
   -0.4795    0.5826   -0.2029 C   0  0  0  0  0  0  0  0  0  0  0  0
   -1.4764   -0.4105   -0.0824 C   0  0  0  0  0  0  0  0  0  0  0  0
   -2.8980   -0.4367   -0.0367 C   0  0  0  0  0  0  0  0  0  0  0  0
   -3.2615   -1.7563    0.0991 C   0  0  0  0  0  0  0  0  0  0  0  0
   -2.1622   -2.5529    0.1344 O   0  0  0  0  0  0  0  0  0  0  0  0
   -1.0767   -1.7396    0.0141 C   0  0  0  0  0  0  0  0  0  0  0  0
    0.2466   -2.1664   -0.0147 C   0  0  0  0  0  0  0  0  0  0  0  0
    1.2012   -1.1580   -0.1723 C   0  0  0  0  0  0  0  0  0  0  0  0
    2.5496   -1.5832   -0.2221 O   0  0  0  0  0  0  0  0  0  0  0  0
    3.5926   -0.6832   -0.3855 C   0  0  0  0  0  0  0  0  0  0  0  0
    4.7658   -1.0343   -0.4224 O   0  0  0  0  0  0  0  0  0  0  0  0
    3.2258    0.7358   -0.5150 C   0  0  0  0  0  0  0  0  0  0  0  0
    1.9582    1.1553   -0.4656 C   0  0  0  0  0  0  0  0  0  0  0  0
    0.8738    0.1967   -0.2788 C   0  0  0  0  0  0  0  0  0  0  0  0
   -0.3092    2.2985    1.6657 H   0  0  0  0  0  0  0  0  0  0  0  0
   -2.0622    2.0642    1.3412 H   0  0  0  0  0  0  0  0  0  0  0  0
   -1.2449    3.5478    0.8279 H   0  0  0  0  0  0  0  0  0  0  0  0
   -3.5707    0.4067   -0.0989 H   0  0  0  0  0  0  0  0  0  0  0  0
   -4.2108   -2.2682    0.1767 H   0  0  0  0  0  0  0  0  0  0  0  0
    0.5111   -3.2132    0.0628 H   0  0  0  0  0  0  0  0  0  0  0  0
    4.0496    1.4245   -0.6568 H   0  0  0  0  0  0  0  0  0  0  0  0
    1.7156    2.2073   -0.5729 H   0  0  0  0  0  0  0  0  0  0  0  0
  1  2  1  0
  2  3  1  0
  3  4  4  0
  4  5  4  0
  5  6  4  0
  6  7  4  0
  7  8  4  0
  8  9  4  0
  9 10  4  0
 10 11  1  0
 11 12  1  0
 12 13  2  0
 12 14  1  0
 14 15  2  0
 15 16  1  0
 16  3  4  0
  8  4  4  0
 16 10  4  0
  1 17  1  0
  1 18  1  0
  1 19  1  0
  5 20  1  0
  6 21  1  0
  9 22  1  0
 14 23  1  0
 15 24  1  0
M  END
