
     RDKit          3D

 24 26  0  0  0  0  0  0  0  0999 V2000
   -1.3837    3.0152    0.1546 C   0  0  0  0  0  0  0  0  0  0  0  0
   -0.1575    2.3140    0.3049 O   0  0  0  0  0  0  0  0  0  0  0  0
   -0.1971    0.9468    0.0974 C   0  0  0  0  0  0  0  0  0  0  0  0
   -1.3021    0.1534   -0.2457 C   0  0  0  0  0  0  0  0  0  0  0  0
   -2.5878    0.5726   -0.4494 O   0  0  0  0  0  0  0  0  0  0  0  0
   -3.3325   -0.5166   -0.7614 C   0  0  0  0  0  0  0  0  0  0  0  0
   -2.5531   -1.6475   -0.7658 C   0  0  0  0  0  0  0  0  0  0  0  0
   -1.2363   -1.2286   -0.4336 C   0  0  0  0  0  0  0  0  0  0  0  0
   -0.0007   -1.8859   -0.2750 C   0  0  0  0  0  0  0  0  0  0  0  0
    1.1294   -1.1325    0.0675 C   0  0  0  0  0  0  0  0  0  0  0  0
    2.4273   -1.7679    0.2421 C   0  0  0  0  0  0  0  0  0  0  0  0
    3.4906   -1.0281    0.5688 C   0  0  0  0  0  0  0  0  0  0  0  0
    3.4097    0.4287    0.7645 C   0  0  0  0  0  0  0  0  0  0  0  0
    4.4074    1.0741    1.0640 O   0  0  0  0  0  0  0  0  0  0  0  0
    2.1637    1.0091    0.5926 O   0  0  0  0  0  0  0  0  0  0  0  0
    1.0154    0.2488    0.2453 C   0  0  0  0  0  0  0  0  0  0  0  0
   -1.1859    4.0739    0.3496 H   0  0  0  0  0  0  0  0  0  0  0  0
   -2.1241    2.6804    0.8880 H   0  0  0  0  0  0  0  0  0  0  0  0
   -1.7622    2.9365   -0.8695 H   0  0  0  0  0  0  0  0  0  0  0  0
   -4.3804   -0.3278   -0.9497 H   0  0  0  0  0  0  0  0  0  0  0  0
   -2.8903   -2.6514   -0.9815 H   0  0  0  0  0  0  0  0  0  0  0  0
    0.0628   -2.9607   -0.4186 H   0  0  0  0  0  0  0  0  0  0  0  0
    2.5158   -2.8401    0.1040 H   0  0  0  0  0  0  0  0  0  0  0  0
    4.4716   -1.4662    0.7069 H   0  0  0  0  0  0  0  0  0  0  0  0
  1  2  1  0
  2  3  1  0
  3  4  4  0
  4  5  4  0
  5  6  4  0
  6  7  4  0
  7  8  4  0
  8  9  4  0
  9 10  4  0
 10 11  1  0
 11 12  2  0
 12 13  1  0
 13 14  2  0
 13 15  1  0
 15 16  1  0
 16  3  4  0
  8  4  4  0
 16 10  4  0
  1 17  1  0
  1 18  1  0
  1 19  1  0
  6 20  1  0
  7 21  1  0
  9 22  1  0
 11 23  1  0
 12 24  1  0
M  END
