
     RDKit          3D

 25 26  0  0  0  0  0  0  0  0999 V2000
    3.5049    1.4055    0.5468 C   0  0  0  0  0  0  0  0  0  0  0  0
    2.9788    0.0949    0.7112 O   0  0  0  0  0  0  0  0  0  0  0  0
    1.6534   -0.0904    0.4268 C   0  0  0  0  0  0  0  0  0  0  0  0
    0.7603    0.8941   -0.0135 C   0  0  0  0  0  0  0  0  0  0  0  0
   -0.5845    0.5794   -0.2736 C   0  0  0  0  0  0  0  0  0  0  0  0
   -1.5230    1.4833   -0.7070 O   0  0  0  0  0  0  0  0  0  0  0  0
   -1.1072    2.8282   -0.9063 C   0  0  0  0  0  0  0  0  0  0  0  0
   -1.0353   -0.7398   -0.0887 C   0  0  0  0  0  0  0  0  0  0  0  0
   -2.4128   -1.1580   -0.3337 C   0  0  0  0  0  0  0  0  0  0  0  0
   -2.7749   -2.4292   -0.1378 C   0  0  0  0  0  0  0  0  0  0  0  0
   -1.8276   -3.4553    0.3251 C   0  0  0  0  0  0  0  0  0  0  0  0
   -2.1913   -4.6132    0.4953 O   0  0  0  0  0  0  0  0  0  0  0  0
   -0.5231   -3.0431    0.5535 O   0  0  0  0  0  0  0  0  0  0  0  0
   -0.1295   -1.7043    0.3502 C   0  0  0  0  0  0  0  0  0  0  0  0
    1.2023   -1.3959    0.6085 C   0  0  0  0  0  0  0  0  0  0  0  0
    4.5655    1.3762    0.8142 H   0  0  0  0  0  0  0  0  0  0  0  0
    3.4331    1.7313   -0.4961 H   0  0  0  0  0  0  0  0  0  0  0  0
    3.0114    2.1156    1.2186 H   0  0  0  0  0  0  0  0  0  0  0  0
    1.1131    1.9075   -0.1539 H   0  0  0  0  0  0  0  0  0  0  0  0
   -0.3402    2.8928   -1.6850 H   0  0  0  0  0  0  0  0  0  0  0  0
   -0.7620    3.2775    0.0306 H   0  0  0  0  0  0  0  0  0  0  0  0
   -1.9761    3.3990   -1.2479 H   0  0  0  0  0  0  0  0  0  0  0  0
   -3.1316   -0.4210   -0.6757 H   0  0  0  0  0  0  0  0  0  0  0  0
   -3.7892   -2.7666   -0.3116 H   0  0  0  0  0  0  0  0  0  0  0  0
    1.8857   -2.1686    0.9498 H   0  0  0  0  0  0  0  0  0  0  0  0
  1  2  1  0
  2  3  1  0
  3  4  4  0
  4  5  4  0
  5  6  1  0
  6  7  1  0
  5  8  4  0
  8  9  1  0
  9 10  2  0
 10 11  1  0
 11 12  2  0
 11 13  1  0
 13 14  1  0
 14 15  4  0
 15  3  4  0
 14  8  4  0
  1 16  1  0
  1 17  1  0
  1 18  1  0
  4 19  1  0
  7 20  1  0
  7 21  1  0
  7 22  1  0
  9 23  1  0
 10 24  1  0
 15 25  1  0
M  END
