
     RDKit          3D

 22 23  0  0  0  0  0  0  0  0999 V2000
   -3.2725    0.4116    1.1580 C   0  0  0  0  0  0  0  0  0  0  0  0
   -2.7794   -0.3977    0.0963 O   0  0  0  0  0  0  0  0  0  0  0  0
   -1.4279   -0.3588   -0.1339 C   0  0  0  0  0  0  0  0  0  0  0  0
   -0.4921    0.3997    0.5753 C   0  0  0  0  0  0  0  0  0  0  0  0
    0.8638    0.3394    0.2264 C   0  0  0  0  0  0  0  0  0  0  0  0
    1.8733    1.1106    0.9355 C   0  0  0  0  0  0  0  0  0  0  0  0
    3.1539    1.0187    0.5645 C   0  0  0  0  0  0  0  0  0  0  0  0
    3.5980    0.1591   -0.5470 C   0  0  0  0  0  0  0  0  0  0  0  0
    4.7823    0.1022   -0.8568 O   0  0  0  0  0  0  0  0  0  0  0  0
    2.6183   -0.5671   -1.2089 O   0  0  0  0  0  0  0  0  0  0  0  0
    1.2642   -0.4809   -0.8296 C   0  0  0  0  0  0  0  0  0  0  0  0
    0.3508   -1.2431   -1.5478 C   0  0  0  0  0  0  0  0  0  0  0  0
   -0.9879   -1.1718   -1.1892 C   0  0  0  0  0  0  0  0  0  0  0  0
   -1.8863   -1.9231   -1.8975 O   0  0  0  0  0  0  0  0  0  0  0  0
   -3.0846    1.4728    0.9647 H   0  0  0  0  0  0  0  0  0  0  0  0
   -4.3561    0.2692    1.2107 H   0  0  0  0  0  0  0  0  0  0  0  0
   -2.8485    0.1022    2.1190 H   0  0  0  0  0  0  0  0  0  0  0  0
   -0.7942    1.0399    1.3971 H   0  0  0  0  0  0  0  0  0  0  0  0
    1.5736    1.7512    1.7574 H   0  0  0  0  0  0  0  0  0  0  0  0
    3.9355    1.5761    1.0665 H   0  0  0  0  0  0  0  0  0  0  0  0
    0.6712   -1.8778   -2.3669 H   0  0  0  0  0  0  0  0  0  0  0  0
   -2.7553   -1.7325   -1.4936 H   0  0  0  0  0  0  0  0  0  0  0  0
  1  2  1  0
  2  3  1  0
  3  4  4  0
  4  5  4  0
  5  6  1  0
  6  7  2  0
  7  8  1  0
  8  9  2  0
  8 10  1  0
 10 11  1  0
 11 12  4  0
 12 13  4  0
 13 14  1  0
 13  3  4  0
 11  5  4  0
  1 15  1  0
  1 16  1  0
  1 17  1  0
  4 18  1  0
  6 19  1  0
  7 20  1  0
 12 21  1  0
 14 22  1  0
M  END
