
     RDKit          3D

 21 22  0  0  0  0  0  0  0  0999 V2000
   -2.6326   -0.9699    0.1081 C   0  0  0  0  0  0  0  0  0  0  0  0
   -1.6179    0.1348    0.0935 C   0  0  0  0  0  0  0  0  0  0  0  0
   -1.9852    1.4230    0.1613 C   0  0  0  0  0  0  0  0  0  0  0  0
   -1.0306    2.5420    0.1505 C   0  0  0  0  0  0  0  0  0  0  0  0
   -1.4239    3.7010    0.2150 O   0  0  0  0  0  0  0  0  0  0  0  0
    0.3119    2.2185    0.0651 O   0  0  0  0  0  0  0  0  0  0  0  0
    0.7335    0.8761   -0.0077 C   0  0  0  0  0  0  0  0  0  0  0  0
    2.1116    0.6679   -0.0908 C   0  0  0  0  0  0  0  0  0  0  0  0
    2.5820   -0.6351   -0.1648 C   0  0  0  0  0  0  0  0  0  0  0  0
    3.9142   -0.9092   -0.2479 O   0  0  0  0  0  0  0  0  0  0  0  0
    1.6991   -1.7090   -0.1563 C   0  0  0  0  0  0  0  0  0  0  0  0
    0.3202   -1.4823   -0.0724 C   0  0  0  0  0  0  0  0  0  0  0  0
   -0.1851   -0.1780    0.0035 C   0  0  0  0  0  0  0  0  0  0  0  0
   -2.5744   -1.5639   -0.8102 H   0  0  0  0  0  0  0  0  0  0  0  0
   -2.4771   -1.6298    0.9683 H   0  0  0  0  0  0  0  0  0  0  0  0
   -3.6553   -0.5825    0.1784 H   0  0  0  0  0  0  0  0  0  0  0  0
   -3.0256    1.7205    0.2293 H   0  0  0  0  0  0  0  0  0  0  0  0
    2.7846    1.5183   -0.0961 H   0  0  0  0  0  0  0  0  0  0  0  0
    4.4078   -0.0721   -0.2439 H   0  0  0  0  0  0  0  0  0  0  0  0
    2.0821   -2.7247   -0.2148 H   0  0  0  0  0  0  0  0  0  0  0  0
   -0.3395   -2.3457   -0.0683 H   0  0  0  0  0  0  0  0  0  0  0  0
  1  2  1  0
  2  3  2  0
  3  4  1  0
  4  5  2  0
  4  6  1  0
  6  7  1  0
  7  8  4  0
  8  9  4  0
  9 10  1  0
  9 11  4  0
 11 12  4  0
 12 13  4  0
 13  2  1  0
 13  7  4  0
  1 14  1  0
  1 15  1  0
  1 16  1  0
  3 17  1  0
  8 18  1  0
 10 19  1  0
 11 20  1  0
 12 21  1  0
M  END
