
     RDKit          3D

 22 23  0  0  0  0  0  0  0  0999 V2000
   -2.5581   -1.0630   -0.3110 C   0  0  0  0  0  0  0  0  0  0  0  0
   -1.6435    0.1083   -0.0995 C   0  0  0  0  0  0  0  0  0  0  0  0
   -2.1538    1.3436    0.0220 C   0  0  0  0  0  0  0  0  0  0  0  0
   -1.3397    2.5464    0.2306 C   0  0  0  0  0  0  0  0  0  0  0  0
   -1.8611    3.6503    0.3346 O   0  0  0  0  0  0  0  0  0  0  0  0
    0.0273    2.3627    0.3015 O   0  0  0  0  0  0  0  0  0  0  0  0
    0.6030    1.0804    0.1785 C   0  0  0  0  0  0  0  0  0  0  0  0
    1.9977    1.0467    0.2703 C   0  0  0  0  0  0  0  0  0  0  0  0
    2.6408   -0.1745    0.1598 C   0  0  0  0  0  0  0  0  0  0  0  0
    3.9972   -0.2777    0.2402 O   0  0  0  0  0  0  0  0  0  0  0  0
    1.9132   -1.3410   -0.0382 C   0  0  0  0  0  0  0  0  0  0  0  0
    0.5158   -1.2860   -0.1275 C   0  0  0  0  0  0  0  0  0  0  0  0
   -0.1604   -2.4608   -0.3231 O   0  0  0  0  0  0  0  0  0  0  0  0
   -0.1782   -0.0671   -0.0208 C   0  0  0  0  0  0  0  0  0  0  0  0
   -2.3463   -1.5593   -1.2637 H   0  0  0  0  0  0  0  0  0  0  0  0
   -3.6101   -0.7563   -0.3446 H   0  0  0  0  0  0  0  0  0  0  0  0
   -2.4684   -1.7840    0.5081 H   0  0  0  0  0  0  0  0  0  0  0  0
   -3.2209    1.5299   -0.0279 H   0  0  0  0  0  0  0  0  0  0  0  0
    2.5477    1.9689    0.4252 H   0  0  0  0  0  0  0  0  0  0  0  0
    4.3735    0.6082    0.3784 H   0  0  0  0  0  0  0  0  0  0  0  0
    2.4482   -2.2823   -0.1207 H   0  0  0  0  0  0  0  0  0  0  0  0
    0.4762   -3.1934   -0.3721 H   0  0  0  0  0  0  0  0  0  0  0  0
  1  2  1  0
  2  3  2  0
  3  4  1  0
  4  5  2  0
  4  6  1  0
  6  7  1  0
  7  8  4  0
  8  9  4  0
  9 10  1  0
  9 11  4  0
 11 12  4  0
 12 13  1  0
 12 14  4  0
 14  2  1  0
 14  7  4  0
  1 15  1  0
  1 16  1  0
  1 17  1  0
  3 18  1  0
  8 19  1  0
 10 20  1  0
 11 21  1  0
 13 22  1  0
M  END
