
     RDKit          3D

 21 22  0  0  0  0  0  0  0  0999 V2000
    3.4646   -0.3113    1.2674 C   0  0  0  0  0  0  0  0  0  0  0  0
    2.9702   -0.4356   -0.0608 O   0  0  0  0  0  0  0  0  0  0  0  0
    1.6245   -0.2683   -0.2373 C   0  0  0  0  0  0  0  0  0  0  0  0
    1.1890   -0.4004   -1.5616 C   0  0  0  0  0  0  0  0  0  0  0  0
   -0.1627   -0.2552   -1.8942 C   0  0  0  0  0  0  0  0  0  0  0  0
   -1.0945    0.0254   -0.8967 C   0  0  0  0  0  0  0  0  0  0  0  0
   -2.5101    0.1866   -1.1828 C   0  0  0  0  0  0  0  0  0  0  0  0
   -3.3562    0.4551   -0.1837 C   0  0  0  0  0  0  0  0  0  0  0  0
   -2.9112    0.5967    1.2139 C   0  0  0  0  0  0  0  0  0  0  0  0
   -3.7163    0.8433    2.1045 O   0  0  0  0  0  0  0  0  0  0  0  0
   -1.5545    0.4382    1.4615 O   0  0  0  0  0  0  0  0  0  0  0  0
   -0.6501    0.1547    0.4173 C   0  0  0  0  0  0  0  0  0  0  0  0
    0.6951    0.0122    0.7621 C   0  0  0  0  0  0  0  0  0  0  0  0
    3.2871    0.6946    1.6619 H   0  0  0  0  0  0  0  0  0  0  0  0
    4.5467   -0.4712    1.2374 H   0  0  0  0  0  0  0  0  0  0  0  0
    3.0329   -1.0755    1.9222 H   0  0  0  0  0  0  0  0  0  0  0  0
    1.9134   -0.6194   -2.3434 H   0  0  0  0  0  0  0  0  0  0  0  0
   -0.4680   -0.3638   -2.9317 H   0  0  0  0  0  0  0  0  0  0  0  0
   -2.8597    0.0867   -2.2044 H   0  0  0  0  0  0  0  0  0  0  0  0
   -4.4183    0.5827   -0.3538 H   0  0  0  0  0  0  0  0  0  0  0  0
    0.9781    0.1245    1.8022 H   0  0  0  0  0  0  0  0  0  0  0  0
  1  2  1  0
  2  3  1  0
  3  4  4  0
  4  5  4  0
  5  6  4  0
  6  7  1  0
  7  8  2  0
  8  9  1  0
  9 10  2  0
  9 11  1  0
 11 12  1  0
 12 13  4  0
 13  3  4  0
 12  6  4  0
  1 14  1  0
  1 15  1  0
  1 16  1  0
  4 17  1  0
  5 18  1  0
  7 19  1  0
  8 20  1  0
 13 21  1  0
M  END
