@<TRIPOS>MOLECULE
LIG
 30 31 0 0 0
SMALL
GASTEIGER

@<TRIPOS>ATOM
      1 C           0.2543   22.3559   34.4818 C.2     1  UNL1        0.2540
      2 O          -0.5210   21.6874   35.1658 O.2     1  UNL1       -0.2721
      3 N           1.0917   23.3083   35.0510 N.am    1  UNL1       -0.3018
      4 H           1.6803   23.8759   34.4559 H       1  UNL1        0.1495
      5 C           0.4185   22.1693   32.9362 C.3     1  UNL1        0.2143
      6 C          -1.9324   21.5191   32.1816 C.ar    1  UNL1       -0.0006
      7 C          -3.0619   21.7283   31.3832 C.ar    1  UNL1        0.0112
      8 C          -3.1580   22.8779   30.6030 C.ar    1  UNL1        0.0577
      9 CL         -4.4900   23.0812   29.5323 Cl      1  UNL1       -0.0822
     10 C          -2.1645   23.8511   30.6626 C.ar    1  UNL1        0.0112
     11 C          -1.0351   23.6422   31.4606 C.ar    1  UNL1       -0.0006
     12 C          -0.8834   22.4513   32.1947 C.ar    1  UNL1        0.0134
     13 O           0.9390   20.8443   32.6986 O.3     1  UNL1       -0.3286
     14 C           1.9848   20.6858   31.7221 C.3     1  UNL1        0.2194
     15 C           1.5499   21.1506   30.3418 C.1     1  UNL1       -0.0453
     16 C           1.1768   21.5493   29.1579 C.1     1  UNL1       -0.0116
     17 C           1.2729   23.4203   36.4923 C.3     1  UNL1        0.0941
     18 C           2.1571   22.3218   37.0901 C.3     1  UNL1        0.0477
     19 C           3.3604   22.9132   37.7940 C.ar    1  UNL1       -0.0173
     20 C           3.6021   24.2922   37.7177 C.ar    1  UNL1        0.0358
     21 C           4.6632   24.8916   38.4183 C.ar    1  UNL1        0.1721
     22 C           4.2095   22.1258   38.5739 C.ar    1  UNL1       -0.0009
     23 C           5.3021   22.7053   39.2284 C.ar    1  UNL1        0.0398
     24 C           5.5592   24.0790   39.1294 C.ar    1  UNL1        0.1737
     25 O           4.8532   26.2508   38.4078 O.3     1  UNL1       -0.4684
     26 C           3.6652   27.0193   38.6015 C.3     1  UNL1        0.2526
     27 O           6.6783   24.4819   39.8113 O.3     1  UNL1       -0.4581
     28 C           6.5363   24.6393   41.2245 C.3     1  UNL1        0.2821
     29 C           7.5086   25.6362   41.7102 C.1     1  UNL1       -0.0307
     30 C           8.3009   26.4335   42.1500 C.1     1  UNL1       -0.0105
@<TRIPOS>BOND
     1     7     6   ar
     2     8     7   ar
     3     9     8    1
     4    10     8   ar
     5    11    10   ar
     6    12    11   ar
     7    12     6   ar
     8    14    13    1
     9    15    14    1
    10    16    15    3
    11     1     5    1
    12     2     1    2
    13     3     1   am
    14    17     3    1
    15    18    17    1
    16    19    18    1
    17    20    19   ar
    18    21    20   ar
    19    25    21    1
    20    26    25    1
    21    22    19   ar
    22    23    22   ar
    23    24    23   ar
    24    24    21   ar
    25    27    24    1
    26    28    27    1
    27    29    28    1
    28    30    29    3
    29     3     4    1
    30     5    13    1
    31     5    12    1
@<TRIPOS>MOLECULE
LIG
 30 31 0 0 0
SMALL
GASTEIGER

@<TRIPOS>ATOM
      1 C          -0.0393   22.1059   35.2940 C.2     1  UNL1        0.2540
      2 O          -0.9171   22.1411   36.1566 O.2     1  UNL1       -0.2721
      3 N           1.2800   22.4342   35.5837 N.am    1  UNL1       -0.3018
      4 H           1.9671   22.4441   34.8417 H       1  UNL1        0.1495
      5 C          -0.2978   21.6417   33.8214 C.3     1  UNL1        0.2143
      6 C           0.0431   23.9574   32.8014 C.ar    1  UNL1       -0.0006
      7 C           0.5298   24.7861   31.7849 C.ar    1  UNL1        0.0112
      8 C           1.3349   24.2543   30.7806 C.ar    1  UNL1        0.0577
      9 CL          1.8375   25.2456   29.4667 Cl      1  UNL1       -0.0822
     10 C           1.7104   22.9144   30.8186 C.ar    1  UNL1        0.0112
     11 C           1.2239   22.0856   31.8346 C.ar    1  UNL1       -0.0006
     12 C           0.3458   22.5870   32.8133 C.ar    1  UNL1        0.0134
     13 O          -1.7223   21.4948   33.6423 O.3     1  UNL1       -0.3286
     14 C          -2.2013   20.9315   32.4072 C.3     1  UNL1        0.2194
     15 C          -2.8525   21.9788   31.5188 C.1     1  UNL1       -0.0453
     16 C          -3.4112   22.8772   30.7567 C.1     1  UNL1       -0.0116
     17 C           1.7521   22.6176   36.9497 C.3     1  UNL1        0.0941
     18 C           3.0409   21.8526   37.2650 C.3     1  UNL1        0.0477
     19 C           4.0091   22.7147   38.0477 C.ar    1  UNL1       -0.0173
     20 C           3.6519   24.0269   38.3893 C.ar    1  UNL1        0.0358
     21 C           4.4889   24.8337   39.1795 C.ar    1  UNL1        0.1721
     22 C           5.2336   22.2151   38.4952 C.ar    1  UNL1       -0.0009
     23 C           6.0983   23.0305   39.2337 C.ar    1  UNL1        0.0398
     24 C           5.7528   24.3507   39.5512 C.ar    1  UNL1        0.1737
     25 O           4.1058   26.0891   39.5803 O.3     1  UNL1       -0.4684
     26 C           3.6810   26.9482   38.5214 C.3     1  UNL1        0.2526
     27 O           6.7179   25.0191   40.2594 O.3     1  UNL1       -0.4581
     28 C           7.8388   24.2438   40.6893 C.3     1  UNL1        0.2821
     29 C           8.9007   25.1418   41.1804 C.1     1  UNL1       -0.0307
     30 C           9.7754   25.8923   41.5390 C.1     1  UNL1       -0.0105
@<TRIPOS>BOND
     1     7     6   ar
     2     8     7   ar
     3     9     8    1
     4    10     8   ar
     5    11    10   ar
     6    12    11   ar
     7    12     6   ar
     8    14    13    1
     9    15    14    1
    10    16    15    3
    11     1     5    1
    12     2     1    2
    13     3     1   am
    14    17     3    1
    15    18    17    1
    16    19    18    1
    17    20    19   ar
    18    21    20   ar
    19    25    21    1
    20    26    25    1
    21    22    19   ar
    22    23    22   ar
    23    24    23   ar
    24    24    21   ar
    25    27    24    1
    26    28    27    1
    27    29    28    1
    28    30    29    3
    29     3     4    1
    30     5    13    1
    31     5    12    1
@<TRIPOS>MOLECULE
LIG
 30 31 0 0 0
SMALL
GASTEIGER

@<TRIPOS>ATOM
      1 C          -0.0058   21.9913   35.0966 C.2     1  UNL1        0.2540
      2 O          -0.8398   22.0184   36.0018 O.2     1  UNL1       -0.2721
      3 N           1.3380   22.2540   35.3365 N.am    1  UNL1       -0.3018
      4 H           1.9894   22.2733   34.5630 H       1  UNL1        0.1495
      5 C          -0.3519   21.6095   33.6184 C.3     1  UNL1        0.2143
      6 C           0.0751   23.9385   32.6634 C.ar    1  UNL1       -0.0006
      7 C           0.5757   24.7761   31.6609 C.ar    1  UNL1        0.0112
      8 C           1.3284   24.2398   30.6192 C.ar    1  UNL1        0.0577
      9 CL          1.8452   25.2487   29.3242 Cl      1  UNL1       -0.0822
     10 C           1.6394   22.8830   30.6046 C.ar    1  UNL1        0.0112
     11 C           1.1390   22.0454   31.6066 C.ar    1  UNL1       -0.0006
     12 C           0.3112   22.5557   32.6238 C.ar    1  UNL1        0.0134
     13 O          -1.7889   21.5607   33.4938 O.3     1  UNL1       -0.3286
     14 C          -2.3520   21.0374   32.2768 C.3     1  UNL1        0.2194
     15 C          -2.9700   22.1300   31.4197 C.1     1  UNL1       -0.0453
     16 C          -3.5000   23.0673   30.6845 C.1     1  UNL1       -0.0116
     17 C           1.8809   22.3525   36.6849 C.3     1  UNL1        0.0941
     18 C           2.1640   23.7896   37.1325 C.3     1  UNL1        0.0477
     19 C           3.4603   23.8729   37.9108 C.ar    1  UNL1       -0.0173
     20 C           4.2614   22.7307   38.0514 C.ar    1  UNL1        0.0358
     21 C           5.5074   22.7830   38.7002 C.ar    1  UNL1        0.1721
     22 C           3.9140   25.0800   38.4458 C.ar    1  UNL1       -0.0009
     23 C           5.1261   25.1288   39.1431 C.ar    1  UNL1        0.0398
     24 C           5.9131   23.9813   39.3071 C.ar    1  UNL1        0.1737
     25 O           6.3273   21.6846   38.7691 O.3     1  UNL1       -0.4684
     26 C           6.0316   20.7874   39.8401 C.3     1  UNL1        0.2526
     27 O           7.0569   24.1950   40.0321 O.3     1  UNL1       -0.4581
     28 C           6.8788   24.6018   41.3905 C.3     1  UNL1        0.2821
     29 C           7.7836   25.7270   41.6913 C.1     1  UNL1       -0.0307
     30 C           8.5159   26.6412   41.9825 C.1     1  UNL1       -0.0105
@<TRIPOS>BOND
     1     7     6   ar
     2     8     7   ar
     3     9     8    1
     4    10     8   ar
     5    11    10   ar
     6    12    11   ar
     7    12     6   ar
     8    14    13    1
     9    15    14    1
    10    16    15    3
    11     1     5    1
    12     2     1    2
    13     3     1   am
    14    17     3    1
    15    18    17    1
    16    19    18    1
    17    20    19   ar
    18    21    20   ar
    19    25    21    1
    20    26    25    1
    21    22    19   ar
    22    23    22   ar
    23    24    23   ar
    24    24    21   ar
    25    27    24    1
    26    28    27    1
    27    29    28    1
    28    30    29    3
    29     3     4    1
    30     5    13    1
    31     5    12    1
@<TRIPOS>MOLECULE
LIG
 30 31 0 0 0
SMALL
GASTEIGER

@<TRIPOS>ATOM
      1 C           0.1457   22.2909   34.4097 C.2     1  UNL1        0.2540
      2 O          -0.6594   21.6267   35.0628 O.2     1  UNL1       -0.2721
      3 N           1.0019   23.2013   35.0183 N.am    1  UNL1       -0.3018
      4 H           1.6161   23.7678   34.4486 H       1  UNL1        0.1495
      5 C           0.3282   22.1434   32.8619 C.3     1  UNL1        0.2143
      6 C          -2.0117   21.5238   32.0496 C.ar    1  UNL1       -0.0006
      7 C          -3.1290   21.7631   31.2426 C.ar    1  UNL1        0.0112
      8 C          -3.2128   22.9403   30.5031 C.ar    1  UNL1        0.0577
      9 CL         -4.5285   23.1837   29.4209 Cl      1  UNL1       -0.0822
     10 C          -2.2196   23.9095   30.6125 C.ar    1  UNL1        0.0112
     11 C          -1.1023   23.6705   31.4192 C.ar    1  UNL1       -0.0006
     12 C          -0.9623   22.4537   32.1119 C.ar    1  UNL1        0.0134
     13 O           0.8429   20.8216   32.5962 O.3     1  UNL1       -0.3286
     14 C           1.9019   20.6817   31.6313 C.3     1  UNL1        0.2194
     15 C           1.4909   21.1869   30.2579 C.1     1  UNL1       -0.0453
     16 C           1.1383   21.6203   29.0799 C.1     1  UNL1       -0.0116
     17 C           1.1640   23.2668   36.4647 C.3     1  UNL1        0.0941
     18 C           2.1644   22.2487   37.0201 C.3     1  UNL1        0.0477
     19 C           3.3091   22.9405   37.7301 C.ar    1  UNL1       -0.0173
     20 C           4.3785   22.1822   38.2275 C.ar    1  UNL1        0.0358
     21 C           5.4958   22.7916   38.8246 C.ar    1  UNL1        0.1721
     22 C           3.3595   24.3305   37.8510 C.ar    1  UNL1       -0.0009
     23 C           4.4408   24.9417   38.4952 C.ar    1  UNL1        0.0398
     24 C           5.4959   24.1816   39.0165 C.ar    1  UNL1        0.1737
     25 O           6.5777   22.0566   39.2401 O.3     1  UNL1       -0.4684
     26 C           6.2494   20.8833   39.9852 C.3     1  UNL1        0.2526
     27 O           6.4638   24.9308   39.6344 O.3     1  UNL1       -0.4581
     28 C           6.3447   25.0748   41.0513 C.3     1  UNL1        0.2821
     29 C           7.5077   25.8178   41.5712 C.1     1  UNL1       -0.0307
     30 C           8.4832   26.3861   41.9982 C.1     1  UNL1       -0.0105
@<TRIPOS>BOND
     1     7     6   ar
     2     8     7   ar
     3     9     8    1
     4    10     8   ar
     5    11    10   ar
     6    12    11   ar
     7    12     6   ar
     8    14    13    1
     9    15    14    1
    10    16    15    3
    11     1     5    1
    12     2     1    2
    13     3     1   am
    14    17     3    1
    15    18    17    1
    16    19    18    1
    17    20    19   ar
    18    21    20   ar
    19    25    21    1
    20    26    25    1
    21    22    19   ar
    22    23    22   ar
    23    24    23   ar
    24    24    21   ar
    25    27    24    1
    26    28    27    1
    27    29    28    1
    28    30    29    3
    29     3     4    1
    30     5    13    1
    31     5    12    1
@<TRIPOS>MOLECULE
LIG
 30 31 0 0 0
SMALL
GASTEIGER

@<TRIPOS>ATOM
      1 C          -0.5399   21.6693   34.4274 C.2     1  UNL1        0.2540
      2 O          -1.3248   21.3321   35.3140 O.2     1  UNL1       -0.2721
      3 N           0.7052   22.2112   34.7247 N.am    1  UNL1       -0.3018
      4 H           1.3061   22.5247   33.9740 H       1  UNL1        0.1495
      5 C          -0.8299   21.4751   32.9014 C.3     1  UNL1        0.2143
      6 C          -0.1984   23.8462   32.1954 C.ar    1  UNL1       -0.0006
      7 C           0.4273   24.7336   31.3134 C.ar    1  UNL1        0.0112
      8 C           1.2306   24.2424   30.2872 C.ar    1  UNL1        0.0577
      9 CL          1.9056   25.3242   29.1314 Cl      1  UNL1       -0.0822
     10 C           1.4658   22.8751   30.1738 C.ar    1  UNL1        0.0112
     11 C           0.8404   21.9877   31.0555 C.ar    1  UNL1       -0.0006
     12 C          -0.0372   22.4597   32.0491 C.ar    1  UNL1        0.0134
     13 O          -2.2567   21.5631   32.7026 O.3     1  UNL1       -0.3286
     14 C          -2.7808   21.3029   31.3874 C.3     1  UNL1        0.2194
     15 C          -3.2770   22.5706   30.7114 C.1     1  UNL1       -0.0453
     16 C          -3.7027   23.6581   30.1315 C.1     1  UNL1       -0.0116
     17 C           1.2513   22.2065   36.0754 C.3     1  UNL1        0.0941
     18 C           1.4265   23.6050   36.6748 C.3     1  UNL1        0.0477
     19 C           2.7756   23.7443   37.3484 C.ar    1  UNL1       -0.0173
     20 C           3.3269   25.0187   37.5435 C.ar    1  UNL1        0.0358
     21 C           4.5397   25.1967   38.2317 C.ar    1  UNL1        0.1721
     22 C           3.4643   22.6336   37.8395 C.ar    1  UNL1       -0.0009
     23 C           4.7001   22.7968   38.4752 C.ar    1  UNL1        0.0398
     24 C           5.2637   24.0682   38.6453 C.ar    1  UNL1        0.1737
     25 O           5.0402   26.4478   38.4922 O.3     1  UNL1       -0.4684
     26 C           4.0645   27.4907   38.4939 C.3     1  UNL1        0.2526
     27 O           6.4858   24.0519   39.2666 O.3     1  UNL1       -0.4581
     28 C           6.4721   24.1374   40.6930 C.3     1  UNL1        0.2821
     29 C           7.4407   25.1578   41.1356 C.1     1  UNL1       -0.0307
     30 C           8.2031   26.0062   41.5301 C.1     1  UNL1       -0.0105
@<TRIPOS>BOND
     1     7     6   ar
     2     8     7   ar
     3     9     8    1
     4    10     8   ar
     5    11    10   ar
     6    12    11   ar
     7    12     6   ar
     8    14    13    1
     9    15    14    1
    10    16    15    3
    11     1     5    1
    12     2     1    2
    13     3     1   am
    14    17     3    1
    15    18    17    1
    16    19    18    1
    17    20    19   ar
    18    21    20   ar
    19    25    21    1
    20    26    25    1
    21    22    19   ar
    22    23    22   ar
    23    24    23   ar
    24    24    21   ar
    25    27    24    1
    26    28    27    1
    27    29    28    1
    28    30    29    3
    29     3     4    1
    30     5    13    1
    31     5    12    1
@<TRIPOS>MOLECULE
LIG
 30 31 0 0 0
SMALL
GASTEIGER

@<TRIPOS>ATOM
      1 C           2.6483   21.4722   37.4027 C.2     1  UNL1        0.2540
      2 O           2.9057   21.1217   36.2509 O.2     1  UNL1       -0.2721
      3 N           1.3631   21.3751   37.9234 N.am    1  UNL1       -0.3018
      4 H           1.1742   21.7184   38.8558 H       1  UNL1        0.1495
      5 C           3.7297   22.0008   38.4037 C.3     1  UNL1        0.2143
      6 C           4.7307   24.2137   39.1911 C.ar    1  UNL1       -0.0006
      7 C           4.7524   25.6124   39.1971 C.ar    1  UNL1        0.0112
      8 C           3.9352   26.3238   38.3221 C.ar    1  UNL1        0.0577
      9 CL          3.8732   28.0415   38.4083 Cl      1  UNL1       -0.0822
     10 C           3.1436   25.6493   37.3967 C.ar    1  UNL1        0.0112
     11 C           3.1217   24.2509   37.3904 C.ar    1  UNL1       -0.0006
     12 C           3.8805   23.5155   38.3196 C.ar    1  UNL1        0.0134
     13 O           4.9585   21.2867   38.1526 O.3     1  UNL1       -0.3286
     14 C           5.9681   21.2820   39.1787 C.3     1  UNL1        0.2194
     15 C           7.2559   21.9415   38.7130 C.1     1  UNL1       -0.0453
     16 C           8.3607   22.5072   38.3136 C.1     1  UNL1       -0.0116
     17 C           0.2998   20.6541   37.2362 C.3     1  UNL1        0.0941
     18 C          -0.8730   21.5426   36.8107 C.3     1  UNL1        0.0477
     19 C          -0.9566   21.6499   35.3026 C.ar    1  UNL1       -0.0173
     20 C           0.0611   22.3053   34.5948 C.ar    1  UNL1        0.0358
     21 C           0.0604   22.3607   33.1901 C.ar    1  UNL1        0.1721
     22 C          -1.9971   21.0566   34.5853 C.ar    1  UNL1       -0.0009
     23 C          -2.0359   21.1564   33.1901 C.ar    1  UNL1        0.0398
     24 C          -1.0332   21.8352   32.4852 C.ar    1  UNL1        0.1737
     25 O           1.0955   22.9326   32.4938 O.3     1  UNL1       -0.4684
     26 C           0.9537   24.3346   32.2616 C.3     1  UNL1        0.2526
     27 O          -1.2315   21.8595   31.1288 O.3     1  UNL1       -0.4581
     28 C          -1.1432   20.6032   30.4534 C.3     1  UNL1        0.2821
     29 C           0.1976   20.0247   30.6607 C.1     1  UNL1       -0.0307
     30 C           1.2750   19.5156   30.8522 C.1     1  UNL1       -0.0105
@<TRIPOS>BOND
     1     7     6   ar
     2     8     7   ar
     3     9     8    1
     4    10     8   ar
     5    11    10   ar
     6    12    11   ar
     7    12     6   ar
     8    14    13    1
     9    15    14    1
    10    16    15    3
    11     1     5    1
    12     2     1    2
    13     3     1   am
    14    17     3    1
    15    18    17    1
    16    19    18    1
    17    20    19   ar
    18    21    20   ar
    19    25    21    1
    20    26    25    1
    21    22    19   ar
    22    23    22   ar
    23    24    23   ar
    24    24    21   ar
    25    27    24    1
    26    28    27    1
    27    29    28    1
    28    30    29    3
    29     3     4    1
    30     5    13    1
    31     5    12    1
@<TRIPOS>MOLECULE
LIG
 30 31 0 0 0
SMALL
GASTEIGER

@<TRIPOS>ATOM
      1 C           0.8599   21.8716   33.1533 C.2     1  UNL1        0.2540
      2 O           2.0009   21.5484   33.4845 O.2     1  UNL1       -0.2721
      3 N          -0.1509   22.0394   34.0927 N.am    1  UNL1       -0.3018
      4 H          -1.0893   22.2558   33.7839 H       1  UNL1        0.1495
      5 C           0.4470   22.1784   31.6748 C.3     1  UNL1        0.2143
      6 C          -1.6235   21.1200   30.6205 C.ar    1  UNL1       -0.0006
      7 C          -2.3303   19.9986   30.1734 C.ar    1  UNL1        0.0112
      8 C          -1.7052   18.7549   30.1304 C.ar    1  UNL1        0.0577
      9 CL         -2.6056   17.3549   29.6931 Cl      1  UNL1       -0.0822
     10 C          -0.3606   18.6336   30.4697 C.ar    1  UNL1        0.0112
     11 C           0.3464   19.7545   30.9168 C.ar    1  UNL1       -0.0006
     12 C          -0.2900   21.0034   31.0420 C.ar    1  UNL1        0.0134
     13 O           1.6330   22.5690   30.9511 O.3     1  UNL1       -0.3286
     14 C           1.7705   23.9467   30.5572 C.3     1  UNL1        0.2194
     15 C           1.0839   24.8888   31.5325 C.1     1  UNL1       -0.0453
     16 C           0.4949   25.6969   32.3691 C.1     1  UNL1       -0.0116
     17 C           0.1171   22.0682   35.5244 C.3     1  UNL1        0.0941
     18 C           0.5673   23.4383   36.0403 C.3     1  UNL1        0.0477
     19 C           1.9022   23.3423   36.7489 C.ar    1  UNL1       -0.0173
     20 C           2.6622   24.5016   36.9598 C.ar    1  UNL1        0.0358
     21 C           3.8692   24.4676   37.6795 C.ar    1  UNL1        0.1721
     22 C           2.3736   22.1301   37.2562 C.ar    1  UNL1       -0.0009
     23 C           3.6021   22.0773   37.9240 C.ar    1  UNL1        0.0398
     24 C           4.3744   23.2314   38.1103 C.ar    1  UNL1        0.1737
     25 O           4.5735   25.6130   37.9545 O.3     1  UNL1       -0.4684
     26 C           3.8448   26.5979   38.6884 C.3     1  UNL1        0.2526
     27 O           5.5584   23.0042   38.7631 O.3     1  UNL1       -0.4581
     28 C           5.5220   23.0904   40.1891 C.3     1  UNL1        0.2821
     29 C           6.2775   24.2774   40.6312 C.1     1  UNL1       -0.0307
     30 C           6.9001   25.2294   41.0348 C.1     1  UNL1       -0.0105
@<TRIPOS>BOND
     1     7     6   ar
     2     8     7   ar
     3     9     8    1
     4    10     8   ar
     5    11    10   ar
     6    12    11   ar
     7    12     6   ar
     8    14    13    1
     9    15    14    1
    10    16    15    3
    11     1     5    1
    12     2     1    2
    13     3     1   am
    14    17     3    1
    15    18    17    1
    16    19    18    1
    17    20    19   ar
    18    21    20   ar
    19    25    21    1
    20    26    25    1
    21    22    19   ar
    22    23    22   ar
    23    24    23   ar
    24    24    21   ar
    25    27    24    1
    26    28    27    1
    27    29    28    1
    28    30    29    3
    29     3     4    1
    30     5    13    1
    31     5    12    1
@<TRIPOS>MOLECULE
LIG
 30 31 0 0 0
SMALL
GASTEIGER

@<TRIPOS>ATOM
      1 C           1.3904   22.7602   35.1977 C.2     1  UNL1        0.2540
      2 O           1.9678   21.6741   35.1450 O.2     1  UNL1       -0.2721
      3 N           1.5598   23.6235   36.2740 N.am    1  UNL1       -0.3018
      4 H           1.0324   24.4856   36.3111 H       1  UNL1        0.1495
      5 C           0.4670   23.3005   34.0549 C.3     1  UNL1        0.2143
      6 C           0.7965   21.6085   32.1714 C.ar    1  UNL1       -0.0006
      7 C           0.2853   20.6778   31.2606 C.ar    1  UNL1        0.0112
      8 C          -1.0517   20.2953   31.3347 C.ar    1  UNL1        0.0577
      9 CL         -1.7114   19.2414   30.1447 Cl      1  UNL1       -0.0822
     10 C          -1.8665   20.7864   32.3509 C.ar    1  UNL1        0.0112
     11 C          -1.3559   21.7170   33.2615 C.ar    1  UNL1       -0.0006
     12 C          -0.0296   22.1750   33.1544 C.ar    1  UNL1        0.0134
     13 O           1.1896   24.3279   33.3441 O.3     1  UNL1       -0.3286
     14 C           0.4667   25.1495   32.4090 C.3     1  UNL1        0.2194
     15 C           1.1004   25.1321   31.0275 C.1     1  UNL1       -0.0453
     16 C           1.6441   25.1171   29.8426 C.1     1  UNL1       -0.0116
     17 C           2.5872   23.4112   37.2849 C.3     1  UNL1        0.0941
     18 C           3.3375   24.6868   37.6793 C.3     1  UNL1        0.0477
     19 C           4.4994   24.3738   38.5987 C.ar    1  UNL1       -0.0173
     20 C           5.0728   23.0943   38.5834 C.ar    1  UNL1        0.0358
     21 C           6.1999   22.7854   39.3647 C.ar    1  UNL1        0.1721
     22 C           5.0598   25.3498   39.4248 C.ar    1  UNL1       -0.0009
     23 C           6.1461   25.0348   40.2487 C.ar    1  UNL1        0.0398
     24 C           6.7013   23.7485   40.2535 C.ar    1  UNL1        0.1737
     25 O           6.8095   21.5580   39.2913 O.3     1  UNL1       -0.4684
     26 C           5.9805   20.4582   39.6691 C.3     1  UNL1        0.2526
     27 O           7.7438   23.6002   41.1315 O.3     1  UNL1       -0.4581
     28 C           7.9499   24.6701   42.0562 C.3     1  UNL1        0.2821
     29 C           9.2777   25.2704   41.8283 C.1     1  UNL1       -0.0307
     30 C          10.3446   25.8035   41.6435 C.1     1  UNL1       -0.0105
@<TRIPOS>BOND
     1     7     6   ar
     2     8     7   ar
     3     9     8    1
     4    10     8   ar
     5    11    10   ar
     6    12    11   ar
     7    12     6   ar
     8    14    13    1
     9    15    14    1
    10    16    15    3
    11     1     5    1
    12     2     1    2
    13     3     1   am
    14    17     3    1
    15    18    17    1
    16    19    18    1
    17    20    19   ar
    18    21    20   ar
    19    25    21    1
    20    26    25    1
    21    22    19   ar
    22    23    22   ar
    23    24    23   ar
    24    24    21   ar
    25    27    24    1
    26    28    27    1
    27    29    28    1
    28    30    29    3
    29     3     4    1
    30     5    13    1
    31     5    12    1
@<TRIPOS>MOLECULE
LIG
 30 31 0 0 0
SMALL
GASTEIGER

@<TRIPOS>ATOM
      1 C           2.8502   22.0044   37.4266 C.2     1  UNL1        0.2540
      2 O           3.3419   21.2485   36.5882 O.2     1  UNL1       -0.2721
      3 N           3.1870   21.9168   38.7724 N.am    1  UNL1       -0.3018
      4 H           2.7276   22.5188   39.4428 H       1  UNL1        0.1495
      5 C           1.8567   23.1594   37.0667 C.3     1  UNL1        0.2143
      6 C          -0.3020   21.9412   36.4545 C.ar    1  UNL1       -0.0006
      7 C          -1.1792   21.4117   35.5020 C.ar    1  UNL1        0.0112
      8 C          -0.9624   21.6531   34.1477 C.ar    1  UNL1        0.0577
      9 CL         -1.9706   20.9067   32.9695 Cl      1  UNL1       -0.0822
     10 C           0.0867   22.4723   33.7404 C.ar    1  UNL1        0.0112
     11 C           0.9639   23.0018   34.6923 C.ar    1  UNL1       -0.0006
     12 C           0.8074   22.7043   36.0588 C.ar    1  UNL1        0.0134
     13 O           2.6310   24.2916   36.6177 O.3     1  UNL1       -0.3286
     14 C           3.7514   24.7135   37.4170 C.3     1  UNL1        0.2194
     15 C           3.5088   26.0653   38.0684 C.1     1  UNL1       -0.0453
     16 C           3.3008   27.2248   38.6271 C.1     1  UNL1       -0.0116
     17 C           4.2934   21.0943   39.2436 C.3     1  UNL1        0.0941
     18 C           5.6738   21.6590   38.8954 C.3     1  UNL1        0.0477
     19 C           6.1183   22.6826   39.9190 C.ar    1  UNL1       -0.0173
     20 C           6.6667   22.2553   41.1367 C.ar    1  UNL1        0.0358
     21 C           7.1612   23.1715   42.0812 C.ar    1  UNL1        0.1721
     22 C           6.0527   24.0524   39.6573 C.ar    1  UNL1       -0.0009
     23 C           6.4898   24.9733   40.6159 C.ar    1  UNL1        0.0398
     24 C           7.0123   24.5464   41.8438 C.ar    1  UNL1        0.1737
     25 O           7.7697   22.7522   43.2376 O.3     1  UNL1       -0.4684
     26 C           9.1962   22.7145   43.1797 C.3     1  UNL1        0.2526
     27 O           7.3735   25.5733   42.6773 O.3     1  UNL1       -0.4581
     28 C           8.1463   26.6227   42.0910 C.3     1  UNL1        0.2821
     29 C           9.5038   26.1288   41.7934 C.1     1  UNL1       -0.0307
     30 C          10.6138   25.7487   41.5104 C.1     1  UNL1       -0.0105
@<TRIPOS>BOND
     1     7     6   ar
     2     8     7   ar
     3     9     8    1
     4    10     8   ar
     5    11    10   ar
     6    12    11   ar
     7    12     6   ar
     8    14    13    1
     9    15    14    1
    10    16    15    3
    11     1     5    1
    12     2     1    2
    13     3     1   am
    14    17     3    1
    15    18    17    1
    16    19    18    1
    17    20    19   ar
    18    21    20   ar
    19    25    21    1
    20    26    25    1
    21    22    19   ar
    22    23    22   ar
    23    24    23   ar
    24    24    21   ar
    25    27    24    1
    26    28    27    1
    27    29    28    1
    28    30    29    3
    29     3     4    1
    30     5    13    1
    31     5    12    1
