@<TRIPOS>MOLECULE
LIG
 51 52 0 0 0
SMALL
USER_CHARGES

@<TRIPOS>ATOM
      1 C           6.2685   -2.1324   -5.3009 C.ar    1  UNL1       -0.0543
      2 C           6.2756   -1.9207   -6.6837 C.ar    1  UNL1       -0.0430
      3 C           5.8700   -0.6928   -7.2007 C.ar    1  UNL1        0.0410
      4 CL          5.9891   -0.3902   -8.8907 Cl      1  UNL1       -0.0835
      5 C           5.3965    0.3037   -6.3519 C.ar    1  UNL1       -0.0430
      6 C           5.3893    0.0924   -4.9694 C.ar    1  UNL1       -0.0543
      7 C           5.8694   -1.1124   -4.4234 C.ar    1  UNL1       -0.0099
      8 C           6.0001   -1.2702   -2.9127 C.3     1  UNL1        0.1604
      9 O           7.3406   -1.5880   -2.4826 O.3     1  UNL1       -0.3503
     10 C           8.3877   -0.6372   -2.7504 C.3     1  UNL1        0.1095
     11 C           7.9931    0.7734   -2.3444 C.1     1  UNL1       -0.0773
     12 C           7.6546    1.9834   -1.9961 C.1     1  UNL1       -0.1169
     13 C           5.0391   -2.3770   -2.3630 C.2     1  UNL1        0.2465
     14 O           5.2170   -3.5811   -2.5483 O.2     1  UNL1       -0.2726
     15 N           3.9796   -1.9071   -1.5955 N.am    1  UNL1       -0.3126
     16 C           3.1559   -2.7936   -0.7842 C.3     1  UNL1        0.0157
     17 C           1.8488   -3.2140   -1.4628 C.3     1  UNL1       -0.0119
     18 C           1.0300   -4.1124   -0.5597 C.ar    1  UNL1       -0.0422
     19 C           1.2719   -5.4935   -0.5486 C.ar    1  UNL1       -0.0131
     20 C           0.5875   -6.3519    0.3294 C.ar    1  UNL1        0.1618
     21 O           0.8794   -7.6912    0.3967 O.3     1  UNL1       -0.4914
     22 C           2.2683   -8.0040    0.2839 C.3     1  UNL1        0.0790
     23 C           0.0738   -3.5922    0.3145 C.ar    1  UNL1       -0.0548
     24 C          -0.6529   -4.4465    1.1512 C.ar    1  UNL1       -0.0160
     25 C          -0.4302   -5.8297    1.1421 C.ar    1  UNL1        0.1633
     26 O          -1.2389   -6.5250    2.0037 O.3     1  UNL1       -0.4759
     27 C          -1.6000   -7.8487    1.6041 C.3     1  UNL1        0.1498
     28 C          -2.9576   -8.1579    2.0904 C.1     1  UNL1       -0.0648
     29 C          -4.0778   -8.4307    2.4475 C.1     1  UNL1       -0.1158
     30 H           6.6000   -3.0927   -4.9070 H       1  UNL1        0.0622
     31 H           6.6203   -2.7093   -7.3475 H       1  UNL1        0.0632
     32 H           5.0571    1.2538   -6.7571 H       1  UNL1        0.0632
     33 H           5.0338    0.8928   -4.3235 H       1  UNL1        0.0622
     34 H           5.7012   -0.3355   -2.4239 H       1  UNL1        0.0744
     35 H           9.2683   -0.9517   -2.1823 H       1  UNL1        0.0697
     36 H           8.6410   -0.6665   -3.8148 H       1  UNL1        0.0697
     37 H           7.3918    2.9770   -1.7135 H       1  UNL1        0.1229
     38 H           3.8318   -0.9108   -1.5042 H       1  UNL1        0.1488
     39 H           3.7450   -3.6772   -0.5098 H       1  UNL1        0.0465
     40 H           2.9381   -2.2518    0.1436 H       1  UNL1        0.0465
     41 H           1.2598   -2.3300   -1.7369 H       1  UNL1        0.0328
     42 H           2.0598   -3.7344   -2.4059 H       1  UNL1        0.0328
     43 H           2.0065   -5.8884   -1.2439 H       1  UNL1        0.0658
     44 H           2.6391   -7.8381   -0.7320 H       1  UNL1        0.0660
     45 H           2.8615   -7.4412    1.0133 H       1  UNL1        0.0660
     46 H           2.3912   -9.0696    0.4978 H       1  UNL1        0.0660
     47 H          -0.1251   -2.5241    0.3515 H       1  UNL1        0.0621
     48 H          -1.4077   -4.0340    1.8159 H       1  UNL1        0.0655
     49 H          -1.6045   -7.9612    0.5141 H       1  UNL1        0.0837
     50 H          -0.8894   -8.5549    2.0471 H       1  UNL1        0.0837
     51 H          -5.0678   -8.6781    2.7440 H       1  UNL1        0.1229
@<TRIPOS>BOND
     1     2     1   ar
     2     3     2   ar
     3     4     3    1
     4     5     3   ar
     5     6     5   ar
     6     7     6   ar
     7     7     1   ar
     8    10     9    1
     9    11    10    1
    10    12    11    3
    11    13     8    1
    12    14    13    2
    13    15    13   am
    14    16    15    1
    15    17    16    1
    16    18    17    1
    17    19    18   ar
    18    20    19   ar
    19    21    20    1
    20    22    21    1
    21    23    18   ar
    22    24    23   ar
    23    25    24   ar
    24    25    20   ar
    25    26    25    1
    26    27    26    1
    27    28    27    1
    28    29    28    3
    29     1    30    1
    30     2    31    1
    31     5    32    1
    32     6    33    1
    33     8    34    1
    34    10    35    1
    35    10    36    1
    36    12    37    1
    37    15    38    1
    38    16    39    1
    39    16    40    1
    40    17    41    1
    41    17    42    1
    42    19    43    1
    43    22    44    1
    44    22    45    1
    45    22    46    1
    46    23    47    1
    47    24    48    1
    48    27    49    1
    49    27    50    1
    50    29    51    1
    51     8     9    1
    52     8     7    1
