@<TRIPOS>MOLECULE
LIG
   51    52     1     0     0
SMALL
bcc


@<TRIPOS>ATOM
      1 C1         -1.9324   21.5191   32.1816 ca          1 LIG      -0.093000
      2 C2         -3.0619   21.7283   31.3832 ca          1 LIG      -0.130500
      3 C3         -3.1580   22.8779   30.6030 ca          1 LIG       0.036400
      4 Cl1        -4.4900   23.0812   29.5323 cl          1 LIG      -0.098400
      5 C4         -2.1645   23.8511   30.6626 ca          1 LIG      -0.130500
      6 C5         -1.0351   23.6422   31.4606 ca          1 LIG      -0.093000
      7 C6         -0.8834   22.4513   32.1947 ca          1 LIG      -0.103300
      8 C7          0.4185   22.1693   32.9362 c3          1 LIG       0.108400
      9 O1          0.9390   20.8443   32.6986 os          1 LIG      -0.404600
     10 C8          1.9848   20.6858   31.7221 c3          1 LIG       0.211500
     11 C9          1.5499   21.1506   30.3418 c1          1 LIG      -0.153100
     12 C10         1.1768   21.5493   29.1579 c1          1 LIG      -0.123500
     13 C11         0.2543   22.3559   34.4818 c           1 LIG       0.643100
     14 O2         -0.5210   21.6874   35.1658 o           1 LIG      -0.608100
     15 N1          1.0917   23.3083   35.0510 ns          1 LIG      -0.571900
     16 C12         1.2729   23.4203   36.4923 c3          1 LIG       0.105000
     17 C13         2.1571   22.3218   37.0901 c3          1 LIG      -0.062100
     18 C14         3.3604   22.9132   37.7940 ca          1 LIG      -0.079300
     19 C15         3.6021   24.2922   37.7177 ca          1 LIG      -0.163000
     20 C16         4.6632   24.8916   38.4183 ca          1 LIG       0.084100
     21 O3          4.8532   26.2508   38.4078 os          1 LIG      -0.313900
     22 C17         3.6652   27.0193   38.6015 c3          1 LIG       0.114700
     23 C18         4.2095   22.1258   38.5739 ca          1 LIG      -0.119000
     24 C19         5.3021   22.7053   39.2284 ca          1 LIG      -0.147000
     25 C20         5.5592   24.0790   39.1294 ca          1 LIG       0.084100
     26 O4          6.6783   24.4819   39.8113 os          1 LIG      -0.301900
     27 C21         6.5363   24.6393   41.2245 c3          1 LIG       0.210500
     28 C22         7.5086   25.6362   41.7102 c1          1 LIG      -0.146100
     29 C23         8.3009   26.4335   42.1500 c1          1 LIG      -0.124500
     30 H1          2.2500   23.6530   34.2810 ha          1 LIG       0.143000
     31 H2          0.0230   22.9520   33.4160 ha          1 LIG       0.157000
     32 H3         -0.7870   20.9340   37.1420 ha          1 LIG       0.157000
     33 H4          1.4400   21.6380   38.0070 ha          1 LIG       0.143000
     34 H5          3.4060   22.5900   37.6440 h1          1 LIG       0.078700
     35 H6          3.9640   24.1500   38.7590 h1          1 LIG       0.051700
     36 H7          5.1630   24.7580   37.5670 h1          1 LIG       0.051700
     37 H8          3.4520   28.3430   39.0340 ha          1 LIG       0.170500
     38 H9          3.8490   24.3330   34.5670 hn          1 LIG       0.338500
     39 H10         6.4180   23.6870   33.8930 h1          1 LIG       0.059700
     40 H11         5.5650   22.1760   33.4300 h1          1 LIG       0.059700
     41 H12         4.7900   24.9830   32.4610 hc          1 LIG       0.061200
     42 H13         5.7860   23.8180   31.5240 hc          1 LIG       0.061200
     43 H14         2.6200   25.0740   32.0290 ha          1 LIG       0.144000
     44 H15         0.5400   26.0400   30.8260 h1          1 LIG       0.040367
     45 H16         1.3200   24.9520   29.6280 h1          1 LIG       0.040367
     46 H17        -0.4650   25.1560   29.6280 h1          1 LIG       0.040367
     47 H18         4.8160   21.3870   31.5390 ha          1 LIG       0.141000
     48 H19         2.7510   20.2500   30.7210 ha          1 LIG       0.148000
     49 H20         0.8620   19.6240   31.2650 h1          1 LIG       0.054700
     50 H21        -0.0990   20.6920   32.3450 h1          1 LIG       0.054700
     51 H22        -3.1090   18.7910   30.0520 ha          1 LIG       0.169500
@<TRIPOS>BOND
     1     2     1 ar  
     2     3     2 ar  
     3     4     3 1   
     4     5     3 ar  
     5     6     5 ar  
     6     7     6 ar  
     7     7     1 ar  
     8     8     7 1   
     9     9     8 1   
    10    10     9 1   
    11    11    10 1   
    12    12    11 3   
    13    13     8 1   
    14    14    13 2   
    15    15    13 1   
    16    16    15 1   
    17    17    16 1   
    18    18    17 1   
    19    19    18 ar  
    20    20    19 ar  
    21    21    20 1   
    22    22    21 1   
    23    23    18 ar  
    24    24    23 ar  
    25    25    24 ar  
    26    25    20 ar  
    27    26    25 1   
    28    27    26 1   
    29    28    27 1   
    30    29    28 3   
    31     1    30 1   
    32     2    31 1   
    33     5    32 1   
    34     6    33 1   
    35     8    34 1   
    36    10    35 1   
    37    10    36 1   
    38    12    37 1   
    39    15    38 1   
    40    16    39 1   
    41    16    40 1   
    42    17    41 1   
    43    17    42 1   
    44    19    43 1   
    45    22    44 1   
    46    22    45 1   
    47    22    46 1   
    48    23    47 1   
    49    24    48 1   
    50    27    49 1   
    51    27    50 1   
    52    29    51 1   
@<TRIPOS>SUBSTRUCTURE
     1 LIG         1 TEMP              0 ****  ****    0 ROOT
