@<TRIPOS>MOLECULE
LIG
   51    52     1     0     0
SMALL
bcc


@<TRIPOS>ATOM
      1 C1         -1.9762   21.5023   32.1367 ca          1 LIG      -0.093000
      2 C2         -3.0917   21.7361   31.3542 ca          1 LIG      -0.130500
      3 C3         -3.1634   22.8951   30.5915 ca          1 LIG       0.036400
      4 Cl1        -4.5120   23.1042   29.5198 cl          1 LIG      -0.098400
      5 C4         -2.1476   23.8594   30.6591 ca          1 LIG      -0.130500
      6 C5         -1.0094   23.6297   31.4567 ca          1 LIG      -0.093000
      7 C6         -0.8932   22.4198   32.1686 ca          1 LIG      -0.103300
      8 C7          0.3260   22.0316   33.0101 c3          1 LIG       0.108400
      9 O1          1.0255   20.8323   32.6491 os          1 LIG      -0.404600
     10 C8          2.0352   20.7603   31.6522 c3          1 LIG       0.211500
     11 C9          1.5387   21.1696   30.3176 c1          1 LIG      -0.153100
     12 C10         1.1838   21.5258   29.2210 c1          1 LIG      -0.123500
     13 C11         0.2462   22.3475   34.5149 c           1 LIG       0.643100
     14 O2         -0.5290   21.7421   35.2480 o           1 LIG      -0.608100
     15 N1          1.0901   23.2959   35.0368 ns          1 LIG      -0.571900
     16 C12         1.1942   23.3972   36.4958 c3          1 LIG       0.105000
     17 C13         2.1683   22.3411   37.0829 c3          1 LIG      -0.062100
     18 C14         3.3641   22.9382   37.7953 ca          1 LIG      -0.079300
     19 C15         3.6479   24.3134   37.7092 ca          1 LIG      -0.163000
     20 C16         4.7019   24.8800   38.4209 ca          1 LIG       0.084100
     21 O3          4.8570   26.2456   38.4308 os          1 LIG      -0.313900
     22 C17         3.6827   27.0591   38.5973 c3          1 LIG       0.114700
     23 C18         4.2011   22.1204   38.5704 ca          1 LIG      -0.119000
     24 C19         5.3093   22.6742   39.2263 ca          1 LIG      -0.147000
     25 C20         5.5721   24.0442   39.1410 ca          1 LIG       0.084100
     26 O4          6.6573   24.5360   39.8139 os          1 LIG      -0.301900
     27 C21         6.5417   24.6482   41.2354 c3          1 LIG       0.210500
     28 C22         7.5168   25.6305   41.7215 c1          1 LIG      -0.146100
     29 C23         8.3014   26.4323   42.1439 c1          1 LIG      -0.124500
     30 H1         -1.9643   20.5582   32.6806 ha          1 LIG       0.143000
     31 H2         -3.8914   21.0024   31.3068 ha          1 LIG       0.157000
     32 H3         -2.2270   24.7671   30.0681 ha          1 LIG       0.157000
     33 H4         -0.2052   24.3595   31.4836 ha          1 LIG       0.143000
     34 H5         -0.2998   21.2308   33.3593 h1          1 LIG       0.078700
     35 H6          2.4090   19.7307   31.5867 h1          1 LIG       0.051700
     36 H7          2.8772   21.4061   31.9309 h1          1 LIG       0.051700
     37 H8          0.8597   21.8378   28.2531 ha          1 LIG       0.170500
     38 H9          1.7605   23.7415   34.4287 hn          1 LIG       0.338500
     39 H10         1.3367   24.4338   36.7960 h1          1 LIG       0.059700
     40 H11         0.2099   23.1778   36.9314 h1          1 LIG       0.059700
     41 H12         1.6088   21.7060   37.7815 hc          1 LIG       0.061200
     42 H13         2.5165   21.6697   36.2873 hc          1 LIG       0.061200
     43 H14         3.1261   24.9840   37.0478 ha          1 LIG       0.144000
     44 H15         3.9786   28.0937   38.8100 h1          1 LIG       0.040367
     45 H16         3.0739   27.0604   37.6854 h1          1 LIG       0.040367
     46 H17         3.0784   26.6907   39.4361 h1          1 LIG       0.040367
     47 H18         4.0028   21.0543   38.6472 ha          1 LIG       0.141000
     48 H19         5.9746   22.0352   39.7991 ha          1 LIG       0.148000
     49 H20         6.7180   23.6757   41.7114 h1          1 LIG       0.054700
     50 H21         5.5359   24.9957   41.5047 h1          1 LIG       0.054700
     51 H22         9.0019   27.1477   42.5134 ha          1 LIG       0.169500
@<TRIPOS>BOND
     1     2     1 ar  
     2     3     2 ar  
     3     4     3 1   
     4     5     3 ar  
     5     6     5 ar  
     6     7     6 ar  
     7     7     1 ar  
     8     8     7 1   
     9     9     8 1   
    10    10     9 1   
    11    11    10 1   
    12    12    11 3   
    13    13     8 1   
    14    14    13 2   
    15    15    13 1   
    16    16    15 1   
    17    17    16 1   
    18    18    17 1   
    19    19    18 ar  
    20    20    19 ar  
    21    21    20 1   
    22    22    21 1   
    23    23    18 ar  
    24    24    23 ar  
    25    25    24 ar  
    26    25    20 ar  
    27    26    25 1   
    28    27    26 1   
    29    28    27 1   
    30    29    28 3   
    31     1    30 1   
    32     2    31 1   
    33     5    32 1   
    34     6    33 1   
    35     8    34 1   
    36    10    35 1   
    37    10    36 1   
    38    12    37 1   
    39    15    38 1   
    40    16    39 1   
    41    16    40 1   
    42    17    41 1   
    43    17    42 1   
    44    19    43 1   
    45    22    44 1   
    46    22    45 1   
    47    22    46 1   
    48    23    47 1   
    49    24    48 1   
    50    27    49 1   
    51    27    50 1   
    52    29    51 1   
@<TRIPOS>SUBSTRUCTURE
     1 LIG         1 TEMP              0 ****  ****    0 ROOT
