
     RDKit          3D

 39 39  0  0  0  0  0  0  0  0999 V2000
    1.8570   28.9500   11.0190 C   0  0  0  0  0  0  0  0  0  0  0  0
    2.5850   28.5620   12.2390 C   0  0  0  0  0  0  0  0  0  0  0  0
    3.2680   29.4460   12.9870 C   0  0  0  0  0  0  0  0  0  0  0  0
    3.3150   30.8750   12.6490 C   0  0  0  0  0  0  0  0  0  0  0  0
    4.1880   31.6640   13.2630 C   0  0  0  0  0  0  0  0  0  0  0  0
    4.0020   28.9640   14.1990 C   0  0  0  0  0  0  0  0  0  0  0  0
    4.2990   33.1410   12.9610 C   0  0  1  0  0  0  0  0  0  0  0  0
    3.5500   33.4740   11.7940 O   0  0  0  0  0  0  0  0  0  0  0  0
    3.7350   33.9090   14.1310 C   0  0  0  0  0  0  0  0  0  0  0  0
    4.5360   34.2770   15.1490 C   0  0  0  0  0  0  0  0  0  0  0  0
    5.9910   34.0500   15.0820 C   0  0  0  0  0  0  0  0  0  0  0  0
    6.6930   34.4190   16.0040 O   0  0  0  0  0  0  0  0  0  0  0  0
    6.6300   33.3830   13.8810 C   0  0  0  0  0  0  0  0  0  0  0  0
    1.7730   30.1520   10.6850 O   0  0  0  0  0  0  0  0  0  0  0  0
    5.7490   33.5040   12.6400 C   0  0  1  0  0  0  0  0  0  0  0  0
    1.3460   28.0500   10.3310 O   0  0  0  0  0  0  0  0  0  0  0  0
    2.2720   34.2690   14.1550 C   0  0  0  0  0  0  0  0  0  0  0  0
    6.2820   32.6140   11.5120 C   0  0  0  0  0  0  0  0  0  0  0  0
    5.7680   34.9450   12.1420 C   0  0  0  0  0  0  0  0  0  0  0  0
    2.5693   27.5072   12.5506 H   0  0  0  0  0  0  0  0  0  0  0  0
    2.6316   31.2881   11.8925 H   0  0  0  0  0  0  0  0  0  0  0  0
    4.8557   31.2267   14.0199 H   0  0  0  0  0  0  0  0  0  0  0  0
    3.4798   29.3069   15.1044 H   0  0  0  0  0  0  0  0  0  0  0  0
    4.0398   27.8647   14.1917 H   0  0  0  0  0  0  0  0  0  0  0  0
    5.0258   29.3662   14.1917 H   0  0  0  0  0  0  0  0  0  0  0  0
    2.6788   33.8613   12.0604 H   0  0  0  0  0  0  0  0  0  0  0  0
    4.0999   34.7521   16.0401 H   0  0  0  0  0  0  0  0  0  0  0  0
    7.5993   33.8623   13.6795 H   0  0  0  0  0  0  0  0  0  0  0  0
    6.7615   32.3148   14.1084 H   0  0  0  0  0  0  0  0  0  0  0  0
    0.8503   28.2792    9.5053 H   0  0  0  0  0  0  0  0  0  0  0  0
    1.9320   34.3527   15.1978 H   0  0  0  0  0  0  0  0  0  0  0  0
    2.1226   35.2307   13.6424 H   0  0  0  0  0  0  0  0  0  0  0  0
    1.6934   33.4864   13.6424 H   0  0  0  0  0  0  0  0  0  0  0  0
    6.8017   31.7462   11.9442 H   0  0  0  0  0  0  0  0  0  0  0  0
    5.4429   32.2670   10.8911 H   0  0  0  0  0  0  0  0  0  0  0  0
    6.9840   33.1900   10.8911 H   0  0  0  0  0  0  0  0  0  0  0  0
    5.7770   35.6302   13.0025 H   0  0  0  0  0  0  0  0  0  0  0  0
    6.6684   35.1103   11.5321 H   0  0  0  0  0  0  0  0  0  0  0  0
    4.8723   35.1340   11.5321 H   0  0  0  0  0  0  0  0  0  0  0  0
  2  1  1  0
  3  2  2  3
  4  3  1  0
  5  4  2  3
  6  3  1  0
  7  5  1  0
  7  8  1  6
  9  7  1  0
 10  9  2  0
 11 10  1  0
 12 11  2  0
 13 11  1  0
 14  1  2  0
 15  7  1  0
 15 13  1  0
 16  1  1  0
 17  9  1  0
 15 18  1  6
 19 15  1  0
  2 20  1  0
  4 21  1  0
  5 22  1  0
  6 23  1  0
  6 24  1  0
  6 25  1  0
  8 26  1  0
 10 27  1  0
 13 28  1  0
 13 29  1  0
 16 30  1  0
 17 31  1  0
 17 32  1  0
 17 33  1  0
 18 34  1  0
 18 35  1  0
 18 36  1  0
 19 37  1  0
 19 38  1  0
 19 39  1  0
M  END
