@<TRIPOS>MOLECULE
EST
   44    47     1     0     0
SMALL
bcc


@<TRIPOS>ATOM
      1 C1           4.8730    22.9400    31.9390 c3         1 EST      -0.081100
      2 C2           4.2170    21.9790    32.9640 c3         1 EST      -0.034000
      3 C3           3.6860    20.7370    32.2340 c3         1 EST      -0.059400
      4 C4           2.4780    21.0680    31.3360 c3         1 EST      -0.068400
      5 C5           1.3480    21.8290    32.0770 c3         1 EST      -0.004400
      6 C6           0.1530    22.2180    31.2080 ca         1 EST      -0.098300
      7 C7          -0.2650    21.4040    30.1390 ca         1 EST      -0.089000
      8 C8          -1.3820    21.7340    29.3660 ca         1 EST      -0.224000
      9 C9          -2.1030    22.8790    29.6640 ca         1 EST       0.131100
     10 O1          -3.1970    23.2440    28.9360 oh         1 EST      -0.500100
     11 C10         -1.7300    23.6900    30.7260 ca         1 EST      -0.164000
     12 C11         -0.6140    23.3630    31.5160 ca         1 EST      -0.037300
     13 C12         -0.2530    24.2980    32.6440 c3         1 EST      -0.034100
     14 C13          0.7710    23.7270    33.6200 c3         1 EST      -0.073400
     15 C14          1.9110    23.0610    32.8470 c3         1 EST      -0.045700
     16 C15          3.0470    22.5960    33.7590 c3         1 EST      -0.060700
     17 C16          3.7280    23.6140    34.6670 c3         1 EST      -0.070400
     18 C17          5.0870    22.9730    35.0100 c3         1 EST      -0.116400
     19 C18          5.2260    21.7310    34.1050 c3         1 EST       0.150100
     20 O2           4.8750    20.5710    34.8540 oh         1 EST      -0.604800
     21 H1          -3.3330    22.5840    28.2370 ho         1 EST       0.421000
     22 H2           5.5230    20.4810    35.5740 ho         1 EST       0.402000
     23 H3           5.2560    23.8540    32.4030 hc         1 EST       0.035367
     24 H4           5.7240    22.4480    31.4530 hc         1 EST       0.035367
     25 H5           4.1880    23.2500    31.1460 hc         1 EST       0.035367
     26 H6           4.4780    20.2770    31.6310 hc         1 EST       0.049200
     27 H7           3.3670    19.9740    32.9560 hc         1 EST       0.049200
     28 H8           2.8060    21.6450    30.4630 hc         1 EST       0.038200
     29 H9           2.1010    20.1150    30.9450 hc         1 EST       0.038200
     30 H10          0.9400    21.1280    32.8230 hc         1 EST       0.054700
     31 H11          0.2660    20.4890    29.8910 ha         1 EST       0.131000
     32 H12         -1.6690    21.0840    28.5460 ha         1 EST       0.130000
     33 H13         -2.3140    24.5820    30.9420 ha         1 EST       0.145000
     34 H14          0.1500    25.2180    32.2020 hc         1 EST       0.050700
     35 H15         -1.1560    24.5710    33.2040 hc         1 EST       0.050700
     36 H16          1.1430    24.5390    34.2560 hc         1 EST       0.044200
     37 H17          0.2890    22.9970    34.2830 hc         1 EST       0.044200
     38 H18          2.2970    23.7980    32.1300 hc         1 EST       0.054700
     39 H19          2.6250    21.8250    34.4250 hc         1 EST       0.064700
     40 H20          3.8740    24.5740    34.1590 hc         1 EST       0.041700
     41 H21          3.1440    23.8080    35.5730 hc         1 EST       0.041700
     42 H22          5.8860    23.6940    34.8020 hc         1 EST       0.045200
     43 H23          5.1350    22.7140    36.0730 hc         1 EST       0.045200
     44 H24          6.2520    21.5970    33.7450 h1         1 EST       0.036700
@<TRIPOS>BOND
     1     2     1 1   
     2     2     3 1   
     3     3     4 1   
     4     4     5 1   
     5     5     6 1   
     6     6     7 ar  
     7     7     8 ar  
     8     8     9 ar  
     9     9    10 1   
    10     9    11 ar  
    11    11    12 ar  
    12    12    13 1   
    13    13    14 1   
    14    14    15 1   
    15    15    16 1   
    16    16    17 1   
    17    17    18 1   
    18    18    19 1   
    19    19    20 1   
    20    16     2 1   
    21    19     2 1   
    22    15     5 1   
    23    12     6 ar  
    24    10    21 1   
    25    20    22 1   
    26     1    23 1   
    27     1    24 1   
    28     1    25 1   
    29     3    26 1   
    30     3    27 1   
    31     4    28 1   
    32     4    29 1   
    33     5    30 1   
    34     7    31 1   
    35     8    32 1   
    36    11    33 1   
    37    13    34 1   
    38    13    35 1   
    39    14    36 1   
    40    14    37 1   
    41    15    38 1   
    42    16    39 1   
    43    17    40 1   
    44    17    41 1   
    45    18    42 1   
    46    18    43 1   
    47    19    44 1   
@<TRIPOS>SUBSTRUCTURE
     1 EST         1 TEMP              0 ****  ****    0 ROOT
