@<TRIPOS>MOLECULE
IMP
   34    36     1     0     0
SMALL
bcc


@<TRIPOS>ATOM
      1 C1           2.1830    22.9680    33.4170 ca         1 IMP       0.119100
      2 C2           3.5240    23.3120    33.6370 ca         1 IMP       0.052100
      3 O1           4.4160    23.7850    32.7150 os         1 IMP      -0.169200
      4 C3           5.5970    23.9880    33.3490 cc         1 IMP      -0.009900
      5 C4           5.4940    23.6530    34.6780 cd         1 IMP      -0.190200
      6 C5           4.1570    23.2140    34.8770 ca         1 IMP      -0.107800
      7 C6           3.4260    22.7440    35.9860 ca         1 IMP      -0.052000
      8 C7           2.0830    22.3870    35.8110 ca         1 IMP      -0.131800
      9 C8           1.2880    21.8960    36.9270 cc         1 IMP      -0.031200
     10 C9           0.0090    21.5610    36.7350 cd         1 IMP      -0.259200
     11 C10         -0.6470    21.6660    35.4210 c          1 IMP       0.741800
     12 O2          -1.8220    21.3460    35.2840 o          1 IMP      -0.559500
     13 O3           0.1310    22.1380    34.3770 os         1 IMP      -0.322200
     14 C11          1.4920    22.5020    34.5500 ca         1 IMP       0.146100
     15 O4           1.4670    23.0290    32.2340 os         1 IMP      -0.301900
     16 C12          1.9930    22.3010    31.1250 c3         1 IMP       0.179600
     17 C13          0.1550    19.7620    30.7820 c3         1 IMP      -0.061400
     18 C14          0.0760    21.0310    29.9800 c2         1 IMP      -0.072400
     19 C15         -0.9940    21.0260    28.9190 c3         1 IMP      -0.061400
     20 C16          0.8640    22.1110    30.1510 c2         1 IMP      -0.194200
     21 H1           6.4000    24.3670    32.7320 h4         1 IMP       0.199000
     22 H2           6.2830    23.7180    35.4130 ha         1 IMP       0.167000
     23 H3           3.9070    22.6640    36.9570 ha         1 IMP       0.147000
     24 H4           1.7460    21.8090    37.9070 ha         1 IMP       0.145000
     25 H5          -0.6130    21.1920    37.5420 ha         1 IMP       0.162000
     26 H6           2.4180    21.3450    31.4480 h1         1 IMP       0.039200
     27 H7           2.7890    22.8830    30.6480 h1         1 IMP       0.039200
     28 H8           0.8710    19.8200    31.6060 hc         1 IMP       0.043867
     29 H9          -0.8210    19.5310    31.2210 hc         1 IMP       0.043867
     30 H10          0.4510    18.9270    30.1380 hc         1 IMP       0.043867
     31 H11         -1.9800    20.8890    29.3760 hc         1 IMP       0.043867
     32 H12         -1.0190    21.9610    28.3490 hc         1 IMP       0.043867
     33 H13         -0.8210    20.2090    28.2110 hc         1 IMP       0.043867
     34 H14          0.6870    22.9860    29.5280 ha         1 IMP       0.125000
@<TRIPOS>BOND
     1    17    18 1   
     2    18    19 1   
     3    18    20 2   
     4    20    16 1   
     5    16    15 1   
     6    15     1 1   
     7     1     2 ar  
     8     2     3 1   
     9     3     4 1   
    10     4     5 2   
    11     5     6 1   
    12     6     7 ar  
    13     7     8 ar  
    14     8     9 1   
    15     9    10 2   
    16    10    11 1   
    17    11    12 2   
    18    11    13 1   
    19    13    14 1   
    20    14     1 ar  
    21     6     2 ar  
    22    14     8 ar  
    23     4    21 1   
    24     5    22 1   
    25     7    23 1   
    26     9    24 1   
    27    10    25 1   
    28    16    26 1   
    29    16    27 1   
    30    17    28 1   
    31    17    29 1   
    32    17    30 1   
    33    19    31 1   
    34    19    32 1   
    35    19    33 1   
    36    20    34 1   
@<TRIPOS>SUBSTRUCTURE
     1 IMP         1 TEMP              0 ****  ****    0 ROOT
