A8S
  CCTOOLS-0919241027

 39 39  0  0  1  0  0  0  0  0999 V2000
    4.1120   -0.5350   -0.4140 C   0  0  0  0  0
    3.8780    0.5910    0.4170 C   0  0  0  0  0
    2.6130    0.9290    0.7560 C   0  0  0  0  0
    1.4800    0.2660    0.1100 C   0  0  0  0  0
    0.2370    0.5110    0.5290 C   0  0  0  0  0
    2.3710    1.9890    1.8000 C   0  0  0  0  0
   -0.9300   -0.1720   -0.1370 C   0  0  0  0  0
   -0.4450   -1.0080   -1.1900 O   0  0  0  0  0
   -1.6450   -1.0200    0.8730 C   0  0  0  0  0
   -2.9660   -1.1540    0.9040 C   0  0  0  0  0
   -3.8110   -0.4540   -0.0690 C   0  0  0  0  0
   -5.0150   -0.4010    0.0700 O   0  0  0  0  0
   -3.1300    0.2010   -1.2530 C   0  0  0  0  0
    5.3590   -0.7960   -0.8590 O   0  0  0  0  0
   -1.8600    0.8870   -0.7270 C   0  0  0  0  0
    3.1910   -1.2670   -0.7200 O   0  0  0  0  0
   -0.8260   -1.7540    1.9020 C   0  0  0  0  0
   -1.1530    1.6060   -1.8770 C   0  0  0  0  0
   -2.2370    1.8980    0.3580 C   0  0  0  0  0
    4.7090    1.1780    0.7780 H   0  0  0  0  0
    1.6500   -0.4200   -0.7060 H   0  0  0  0  0
    0.0670    1.1970    1.3440 H   0  0  0  0  0
    2.3090    2.9650    1.3190 H   0  0  0  0  0
    1.4360    1.7800    2.3200 H   0  0  0  0  0
    3.1930    1.9880    2.5160 H   0  0  0  0  0
    0.1630   -1.6990   -0.8950 H   0  0  0  0  0
   -3.4220   -1.7850    1.6530 H   0  0  0  0  0
   -2.8640   -0.5540   -1.9920 H   0  0  0  0  0
   -3.7940    0.9400   -1.7010 H   0  0  0  0  0
    5.4200   -1.5830   -1.4180 H   0  0  0  0  0
   -0.6950   -1.1230    2.7800 H   0  0  0  0  0
   -1.3390   -2.6730    2.1870 H   0  0  0  0  0
   -0.8900    0.8840   -2.6500 H   0  0  0  0  0
   -1.8180    2.3620   -2.2970 H   0  0  0  0  0
   -0.2480    2.0860   -1.5040 H   0  0  0  0  0
   -1.3340    2.3790    0.7360 H   0  0  0  0  0
   -2.9010    2.6530   -0.0640 H   0  0  0  0  0
   -2.7440    1.3840    1.1740 H   0  0  0  0  0
    0.1500   -1.9990    1.4820 H   0  0  0  0  0
  1  2  1  0  0  0
  2  3  2  0  0  0
  2 20  1  0  0  0
  3  4  1  0  0  0
  3  6  1  0  0  0
  4  5  2  0  0  0
  4 21  1  0  0  0
  5  7  1  0  0  0
  5 22  1  0  0  0
  6 23  1  0  0  0
  6 24  1  0  0  0
  6 25  1  0  0  0
  7 15  1  0  0  0
  7  9  1  0  0  0
  8  7  1  0  0  0
  8 26  1  0  0  0
  9 17  1  0  0  0
  9 10  2  0  0  0
 10 11  1  0  0  0
 10 27  1  0  0  0
 11 12  2  0  0  0
 13 11  1  0  0  0
 13 28  1  0  0  0
 13 29  1  0  0  0
 14  1  1  0  0  0
 14 30  1  0  0  0
 15 13  1  0  0  0
 16  1  2  0  0  0
 17 31  1  0  0  0
 17 32  1  0  0  0
 17 39  1  0  0  0
 18 15  1  0  0  0
 18 33  1  0  0  0
 18 34  1  0  0  0
 18 35  1  0  0  0
 19 15  1  0  0  0
 19 36  1  0  0  0
 19 37  1  0  0  0
 19 38  1  0  0  0
M  END
$$$$
