
     RDKit          3D

 38 38  0  0  0  0  0  0  0  0999 V2000
    3.3590   22.1480   37.1680 C   0  0  0  0  0  0  0  0  0  0  0  0
    1.9880   22.0070   37.0880 C   0  0  0  0  0  0  0  0  0  0  0  0
    1.1620   22.0760   36.0090 C   0  0  0  0  0  0  0  0  0  0  0  0
    1.6320   22.2780   34.7650 C   0  0  0  0  0  0  0  0  0  0  0  0
    0.8060   22.3300   33.5240 C   0  0  0  0  0  0  0  0  0  0  0  0
   -0.3310   21.9170   36.1790 C   0  0  0  0  0  0  0  0  0  0  0  0
    1.4650   22.7090   32.1850 C   0  0  1  0  0  0  0  0  0  0  0  0
    2.9020   22.8230   32.2410 O   0  0  0  0  0  0  0  0  0  0  0  0
    1.2700   21.5980   31.1510 C   0  0  0  0  0  0  0  0  0  0  0  0
   -0.1620   21.5250   30.6990 C   0  0  0  0  0  0  0  0  0  0  0  0
   -0.9130   22.6700   30.5140 C   0  0  0  0  0  0  0  0  0  0  0  0
   -1.9320   22.6480   29.6420 O   0  0  0  0  0  0  0  0  0  0  0  0
   -0.6150   23.9090   31.3060 C   0  0  0  0  0  0  0  0  0  0  0  0
    4.1200   22.2980   36.1660 O   0  0  0  0  0  0  0  0  0  0  0  0
    0.9080   24.0310   31.5930 C   0  0  2  0  0  0  0  0  0  0  0  0
    3.8540   22.1080   38.3270 O   0  0  0  0  0  0  0  0  0  0  0  0
    2.0400   20.2930   31.4560 C   0  0  0  0  0  0  0  0  0  0  0  0
    1.6310   24.4240   30.2870 C   0  0  0  0  0  0  0  0  0  0  0  0
    1.0030   25.2220   32.5410 C   0  0  0  0  0  0  0  0  0  0  0  0
    1.4850   21.8078   38.0458 H   0  0  0  0  0  0  0  0  0  0  0  0
    2.7175   22.4166   34.6534 H   0  0  0  0  0  0  0  0  0  0  0  0
   -0.2686   22.0987   33.5652 H   0  0  0  0  0  0  0  0  0  0  0  0
   -0.5773   21.8908   37.2508 H   0  0  0  0  0  0  0  0  0  0  0  0
   -0.8464   22.7653   35.7050 H   0  0  0  0  0  0  0  0  0  0  0  0
   -0.6562   20.9791   35.7050 H   0  0  0  0  0  0  0  0  0  0  0  0
    3.1946   22.8462   33.1865 H   0  0  0  0  0  0  0  0  0  0  0  0
   -0.6201   20.5425   30.5122 H   0  0  0  0  0  0  0  0  0  0  0  0
   -0.9456   24.7894   30.7354 H   0  0  0  0  0  0  0  0  0  0  0  0
   -1.1498   23.8499   32.2654 H   0  0  0  0  0  0  0  0  0  0  0  0
    2.1187   20.1597   32.5451 H   0  0  0  0  0  0  0  0  0  0  0  0
    1.5011   19.4389   31.0200 H   0  0  0  0  0  0  0  0  0  0  0  0
    3.0482   20.3517   31.0200 H   0  0  0  0  0  0  0  0  0  0  0  0
    2.5736   24.9364   30.5297 H   0  0  0  0  0  0  0  0  0  0  0  0
    1.8462   23.5187   29.7003 H   0  0  0  0  0  0  0  0  0  0  0  0
    0.9884   25.0969   29.7003 H   0  0  0  0  0  0  0  0  0  0  0  0
    0.9746   24.8657   33.5813 H   0  0  0  0  0  0  0  0  0  0  0  0
    1.9468   25.7582   32.3627 H   0  0  0  0  0  0  0  0  0  0  0  0
    0.1562   25.9010   32.3627 H   0  0  0  0  0  0  0  0  0  0  0  0
  2  1  1  0
  3  2  2  3
  4  3  1  0
  5  4  2  3
  6  3  1  0
  7  5  1  0
  7  8  1  1
  9  7  1  0
 10  9  2  0
 11 10  1  0
 12 11  2  0
 13 11  1  0
 14  1  1  0
 15 13  1  0
 15  7  1  0
 16  1  2  0
 17  9  1  0
 15 18  1  6
 19 15  1  0
  2 20  1  0
  4 21  1  0
  5 22  1  0
  6 23  1  0
  6 24  1  0
  6 25  1  0
  8 26  1  0
 10 27  1  0
 13 28  1  0
 13 29  1  0
 17 30  1  0
 17 31  1  0
 17 32  1  0
 18 33  1  0
 18 34  1  0
 18 35  1  0
 19 36  1  0
 19 37  1  0
 19 38  1  0
M  CHG  1  14  -1
M  END
$$$$
