WI5
  CCTOOLS-0919241031

 58 63  0  0  1  0  0  0  0  0999 V2000
    5.4450    2.1100    1.2790 C   0  0  0  0  0
    0.2320   -2.3250    1.8090 C   0  0  0  0  0
   -0.5770   -3.3820    2.1770 C   0  0  0  0  0
   -1.8040   -3.6250    1.5620 C   0  0  0  0  0
   -2.2300   -2.7930    0.5580 C   0  0  0  0  0
   -3.9210   -1.6530   -0.6640 C   0  0  0  0  0
   -2.9180   -0.8880   -1.5400 C   0  0  0  0  0
   -3.4610    0.5080   -1.8510 C   0  0  0  0  0
   -4.7400    2.3160   -0.8690 C   0  0  0  0  0
   -5.1840    2.9330    0.4590 C   0  0  0  0  0
   -3.1550    2.2010    1.5000 C   0  0  0  0  0
    6.5950    1.6340    0.6530 C   0  0  0  0  0
   -2.6900    1.5760    0.1820 C   0  0  0  0  0
    2.8260   -0.0430   -0.2910 C   0  0  0  0  0
    2.7920   -1.0600   -1.2370 C   0  0  0  0  0
    3.9600   -1.4970   -1.8470 C   0  0  0  0  0
    5.1730   -0.9560   -1.5470 C   0  0  0  0  0
    5.2820    0.0750   -0.5990 C   0  0  0  0  0
    4.1160    0.5530    0.0480 C   0  0  0  0  0
    4.2210    1.5850    0.9890 C   0  0  0  0  0
    6.5290    0.6360   -0.2700 C   0  0  0  0  0
    1.5870    0.4240    0.3570 C   0  0  0  0  0
    0.3180   -0.2680    0.1000 C   0  0  0  0  0
   -0.6290    0.0790   -0.8390 C   0  0  0  0  0
   -0.5230    1.2510   -1.7810 C   0  0  0  0  0
   -1.4060   -1.7260    0.1930 C   0  0  0  0  0
   -0.1860   -1.4640    0.7940 C   0  0  0  0  0
   -1.6570   -0.7760   -0.7920 N   0  0  0  0  0
   -3.8650    1.1650   -0.6010 N   0  0  0  0  0
    1.6170    1.3830    1.1070 O   0  0  0  0  0
   -3.3880   -2.8790   -0.1480 O   0  0  0  0  0
   -4.0290    3.2970    1.2200 O   0  0  0  0  0
    5.5240    2.9030    2.0090 H   0  0  0  0  0
    1.1770   -2.1630    2.3050 H   0  0  0  0  0
   -0.2480   -4.0420    2.9660 H   0  0  0  0  0
   -2.4130   -4.4610    1.8730 H   0  0  0  0  0
   -4.2140   -1.0180    0.1720 H   0  0  0  0  0
   -4.8070   -1.8780   -1.2580 H   0  0  0  0  0
   -2.7490   -1.4330   -2.4690 H   0  0  0  0  0
   -2.6870    1.0990   -2.3380 H   0  0  0  0  0
   -4.3240    0.4230   -2.5120 H   0  0  0  0  0
   -5.6160    1.9840   -1.4270 H   0  0  0  0  0
   -4.1960    3.0580   -1.4530 H   0  0  0  0  0
   -5.7870    3.8210    0.2650 H   0  0  0  0  0
   -5.7740    2.2070    1.0190 H   0  0  0  0  0
   -3.6860    1.4540    2.0900 H   0  0  0  0  0
   -2.2900    2.5580    2.0590 H   0  0  0  0  0
    7.5530    2.0640    0.9040 H   0  0  0  0  0
   -2.1130    2.3070   -0.3840 H   0  0  0  0  0
   -2.0690    0.7050    0.3910 H   0  0  0  0  0
    1.8480   -1.5140   -1.5010 H   0  0  0  0  0
    3.9050   -2.2890   -2.5790 H   0  0  0  0  0
    6.0590   -1.3240   -2.0420 H   0  0  0  0  0
    3.3370    1.9620    1.4810 H   0  0  0  0  0
    7.4270    0.2840   -0.7540 H   0  0  0  0  0
   -0.1830    0.9030   -2.7560 H   0  0  0  0  0
   -1.5000    1.7230   -1.8850 H   0  0  0  0  0
    0.1900    1.9730   -1.3840 H   0  0  0  0  0
  1 12  1  0  0  0
  1 33  1  0  0  0
  2 34  1  0  0  0
  3  2  2  0  0  0
  3 35  1  0  0  0
  4  3  1  0  0  0
  4 36  1  0  0  0
  5  4  2  0  0  0
  5 26  1  0  0  0
  6 31  1  0  0  0
  6  7  1  0  0  0
  6 37  1  0  0  0
  6 38  1  0  0  0
  7  8  1  0  0  0
  7 28  1  0  0  0
  7 39  1  0  0  0
  8 40  1  0  0  0
  8 41  1  0  0  0
  9 29  1  0  0  0
  9 42  1  0  0  0
  9 43  1  0  0  0
 10 32  1  0  0  0
 10  9  1  0  0  0
 10 44  1  0  0  0
 10 45  1  0  0  0
 11 13  1  0  0  0
 11 46  1  0  0  0
 11 47  1  0  0  0
 12 48  1  0  0  0
 13 49  1  0  0  0
 13 50  1  0  0  0
 14 19  2  0  0  0
 15 16  2  0  0  0
 15 14  1  0  0  0
 15 51  1  0  0  0
 16 17  1  0  0  0
 16 52  1  0  0  0
 17 18  2  0  0  0
 17 53  1  0  0  0
 18 21  1  0  0  0
 19 18  1  0  0  0
 19 20  1  0  0  0
 20  1  2  0  0  0
 20 54  1  0  0  0
 21 12  2  0  0  0
 21 55  1  0  0  0
 22 14  1  0  0  0
 22 30  2  0  0  0
 23 22  1  0  0  0
 24 25  1  0  0  0
 24 23  2  0  0  0
 25 56  1  0  0  0
 25 57  1  0  0  0
 25 58  1  0  0  0
 26 28  1  0  0  0
 26 27  2  0  0  0
 27  2  1  0  0  0
 27 23  1  0  0  0
 28 24  1  0  0  0
 29 13  1  0  0  0
 29  8  1  0  0  0
 31  5  1  0  0  0
 32 11  1  0  0  0
M  END
$$$$
