@<TRIPOS>MOLECULE
LIG
   38    38     1     0     0
SMALL
bcc


@<TRIPOS>ATOM
      1 C1         -9.3516    6.7027  -18.1711 c           1 LIG       0.860800
      2 C2        -10.0626    6.3911  -16.8950 ce          1 LIG      -0.080200
      3 C3        -11.3520    6.7018  -16.5309 cf          1 LIG      -0.160200
      4 C4        -12.2993    7.5874  -17.3841 cf          1 LIG      -0.043000
      5 C5        -13.6667    7.5376  -17.4964 c2          1 LIG      -0.328200
      6 C6        -11.8332    6.3154  -15.1332 c3          1 LIG      -0.052900
      7 C7        -14.6998    8.5029  -18.2169 c3          1 LIG       0.256200
      8 O1        -14.0861    9.3814  -19.1661 oh          1 LIG      -0.624800
      9 C8        -15.7513    7.6979  -18.9389 c2          1 LIG       0.010600
     10 C9        -17.0338    7.5421  -18.5438 ce          1 LIG      -0.294200
     11 C10       -17.3925    8.0011  -17.1478 c           1 LIG       0.551300
     12 O2        -18.5776    7.8506  -16.7510 o           1 LIG      -0.628100
     13 C11       -16.3923    8.7031  -16.2833 c3          1 LIG      -0.148400
     14 O3         -9.9378    7.1876  -19.1138 o           1 LIG      -0.830300
     15 C12       -15.4845    9.4624  -17.1901 c3          1 LIG      -0.061000
     16 O4         -8.2455    6.2090  -18.2480 o           1 LIG      -0.830300
     17 C13       -15.2294    7.0651  -20.2668 c3          1 LIG      -0.058900
     18 C14       -16.1678   10.6820  -17.8916 c3          1 LIG      -0.083600
     19 C15       -14.4299   10.1538  -16.2293 c3          1 LIG      -0.083600
     20 H1         -9.5208    5.7555  -16.1978 ha          1 LIG       0.107000
     21 H2        -11.8417    8.3263  -18.0387 ha          1 LIG       0.179000
     22 H3        -14.1967    6.8614  -16.8289 ha          1 LIG       0.136000
     23 H4        -12.5228    7.0845  -14.7639 hc          1 LIG       0.028700
     24 H5        -12.4062    5.3987  -14.9470 hc          1 LIG       0.028700
     25 H6        -11.0230    6.3734  -14.3959 hc          1 LIG       0.028700
     26 H7        -13.5376    8.7906  -19.7109 ho          1 LIG       0.437000
     27 H8        -17.8040    7.0904  -19.1656 ha          1 LIG       0.143000
     28 H9        -16.8698    9.3672  -15.5523 hc          1 LIG       0.070700
     29 H10       -15.7545    8.0111  -15.7196 hc          1 LIG       0.070700
     30 H11       -14.5847    6.2206  -19.9939 hc          1 LIG       0.055700
     31 H12       -16.1490    6.6132  -20.6586 hc          1 LIG       0.055700
     32 H13       -14.7122    7.6725  -21.0198 hc          1 LIG       0.055700
     33 H14       -16.5742   10.3565  -18.8571 hc          1 LIG       0.038533
     34 H15       -16.8674   11.1660  -17.1990 hc          1 LIG       0.038533
     35 H16       -15.3847   11.4182  -18.1113 hc          1 LIG       0.038533
     36 H17       -14.9298   10.8313  -15.5261 hc          1 LIG       0.038533
     37 H18       -13.9828    9.3185  -15.6763 hc          1 LIG       0.038533
     38 H19       -13.6918   10.7510  -16.7787 hc          1 LIG       0.038533
@<TRIPOS>BOND
     1     2     1 1   
     2     3     2 2   
     3     4     3 1   
     4     5     4 2   
     5     6     3 1   
     6     7     5 1   
     7     7     8 1   
     8     9     7 1   
     9    10     9 2   
    10    11    10 1   
    11    12    11 2   
    12    13    11 1   
    13    14     1 1   
    14    15    13 1   
    15    15     7 1   
    16    16     1 1   
    17    17     9 1   
    18    15    18 1   
    19    19    15 1   
    20     2    20 1   
    21     4    21 1   
    22     5    22 1   
    23     6    23 1   
    24     6    24 1   
    25     6    25 1   
    26     8    26 1   
    27    10    27 1   
    28    13    28 1   
    29    13    29 1   
    30    17    30 1   
    31    17    31 1   
    32    17    32 1   
    33    18    33 1   
    34    18    34 1   
    35    18    35 1   
    36    19    36 1   
    37    19    37 1   
    38    19    38 1   
@<TRIPOS>SUBSTRUCTURE
     1 LIG         1 TEMP              0 ****  ****    0 ROOT
