@<TRIPOS>MOLECULE
LIG
   51    52     1     0     0
SMALL
bcc


@<TRIPOS>ATOM
      1 C1        -14.1400    8.9335  -16.5500 ca          1 LIG      -0.093000
      2 C2        -15.3397    9.5954  -16.3164 ca          1 LIG      -0.130500
      3 C3        -15.6309   10.0763  -15.0446 ca          1 LIG       0.036400
      4 Cl1       -17.1205   10.8973  -14.7532 cl          1 LIG      -0.098400
      5 C4        -14.7227    9.8969  -14.0083 ca          1 LIG      -0.130500
      6 C5        -13.5225    9.2355  -14.2426 ca          1 LIG      -0.093000
      7 C6        -13.2307    8.7539  -15.5146 ca          1 LIG      -0.103300
      8 C7        -12.0315    8.0928  -15.7480 c3          1 LIG       0.108400
      9 O1        -11.2110    8.8855  -16.6111 os          1 LIG      -0.404600
     10 C8         -9.8337    8.6317  -16.3240 c3          1 LIG       0.211500
     11 C9         -9.0071    9.6939  -16.9090 c1          1 LIG      -0.153100
     12 C10        -8.3487   10.5427  -17.3742 c1          1 LIG      -0.123500
     13 C11       -12.3127    6.7430  -16.4104 c           1 LIG       0.643100
     14 O2        -12.3259    5.7044  -15.7499 o           1 LIG      -0.608100
     15 N1        -12.5371    6.7946  -17.7306 ns          1 LIG      -0.571900
     16 C12       -12.8227    5.5877  -18.5202 c3          1 LIG       0.105000
     17 C13       -13.6384    5.9683  -19.7583 c3          1 LIG      -0.062100
     18 C14       -14.8845    6.4440  -19.3641 ca          1 LIG      -0.079300
     19 C15       -15.2407    7.7609  -19.6386 ca          1 LIG      -0.163000
     20 C16       -16.4889    8.2185  -19.2383 ca          1 LIG       0.084100
     21 O3        -16.9115    9.4910  -19.4694 os          1 LIG      -0.313900
     22 C17       -16.9288    9.7395  -20.8773 c3          1 LIG       0.114700
     23 C18       -15.7693    5.6005  -18.6966 ca          1 LIG      -0.119000
     24 C19       -17.0189    6.0626  -18.2981 ca          1 LIG      -0.147000
     25 C20       -17.3702    7.3773  -18.5752 ca          1 LIG       0.084100
     26 O4        -18.5724    7.9052  -18.2181 os          1 LIG      -0.301900
     27 C21       -18.7468    7.7810  -16.8044 c3          1 LIG       0.210500
     28 C22       -20.0605    8.3170  -16.4244 c1          1 LIG      -0.146100
     29 C23       -21.1067    8.7440  -16.1209 c1          1 LIG      -0.124500
     30 H1        -13.9096    8.5517  -17.5554 ha          1 LIG       0.143000
     31 H2        -16.0581    9.7384  -17.1375 ha          1 LIG       0.157000
     32 H3        -14.9536   10.2781  -13.0022 ha          1 LIG       0.157000
     33 H4        -12.8035    9.0931  -13.4222 ha          1 LIG       0.143000
     34 H5        -11.5100    7.9304  -14.7927 h1          1 LIG       0.078700
     35 H6         -9.6848    8.6094  -15.2348 h1          1 LIG       0.051700
     36 H7         -9.5424    7.6620  -16.7548 h1          1 LIG       0.051700
     37 H8         -7.7297   11.3402  -17.8116 ha          1 LIG       0.170500
     38 H9        -12.5084    7.7071  -18.2068 hn          1 LIG       0.338500
     39 H10       -11.8771    5.1225  -18.8333 h1          1 LIG       0.059700
     40 H11       -13.3965    4.8765  -17.9081 h1          1 LIG       0.059700
     41 H12       -13.1081    6.7511  -20.3209 hc          1 LIG       0.061200
     42 H13       -13.7695    5.0826  -20.3973 hc          1 LIG       0.061200
     43 H14       -14.5442    8.4295  -20.1650 ha          1 LIG       0.144000
     44 H15       -16.0279   10.3037  -21.1612 h1          1 LIG       0.040367
     45 H16       -16.9473    8.7819  -21.4183 h1          1 LIG       0.040367
     46 H17       -17.8239   10.3244  -21.1354 h1          1 LIG       0.040367
     47 H18       -15.4772    4.5619  -18.4834 ha          1 LIG       0.141000
     48 H19       -17.7182    5.3970  -17.7715 ha          1 LIG       0.148000
     49 H20       -18.6873    6.7198  -16.5196 h1          1 LIG       0.054700
     50 H21       -17.9570    8.3455  -16.2867 h1          1 LIG       0.054700
     51 H22       -22.0908    9.1452  -15.8357 ha          1 LIG       0.169500
@<TRIPOS>BOND
     1     2     1 ar  
     2     3     2 ar  
     3     4     3 1   
     4     5     3 ar  
     5     6     5 ar  
     6     7     6 ar  
     7     7     1 ar  
     8     8     7 1   
     9     9     8 1   
    10    10     9 1   
    11    11    10 1   
    12    12    11 3   
    13    13     8 1   
    14    14    13 2   
    15    15    13 1   
    16    16    15 1   
    17    17    16 1   
    18    18    17 1   
    19    19    18 ar  
    20    20    19 ar  
    21    21    20 1   
    22    22    21 1   
    23    23    18 ar  
    24    24    23 ar  
    25    25    24 ar  
    26    25    20 ar  
    27    26    25 1   
    28    27    26 1   
    29    28    27 1   
    30    29    28 3   
    31     1    30 1   
    32     2    31 1   
    33     5    32 1   
    34     6    33 1   
    35     8    34 1   
    36    10    35 1   
    37    10    36 1   
    38    12    37 1   
    39    15    38 1   
    40    16    39 1   
    41    16    40 1   
    42    17    41 1   
    43    17    42 1   
    44    19    43 1   
    45    22    44 1   
    46    22    45 1   
    47    22    46 1   
    48    23    47 1   
    49    24    48 1   
    50    27    49 1   
    51    27    50 1   
    52    29    51 1   
@<TRIPOS>SUBSTRUCTURE
     1 LIG         1 TEMP              0 ****  ****    0 ROOT
