@<TRIPOS>MOLECULE
FLU
   30    30     1     0     0
SMALL
bcc


@<TRIPOS>ATOM
      1 C1           1.0750    21.9360    32.6720 ca         1 FLU       0.068600
      2 C2           0.6850    22.2410    33.9820 ca         1 FLU      -0.132000
      3 C3           1.6380    22.4210    34.9860 ca         1 FLU      -0.080000
      4 C4           2.9970    22.2970    34.6730 ca         1 FLU      -0.099200
      5 C5           3.4260    22.0150    33.3690 ca         1 FLU      -0.131300
      6 C6           2.4400    21.8270    32.3770 ca         1 FLU      -0.065000
      7 C7          -0.4430    22.7010    30.8240 c          1 FLU       0.659100
      8 O1          -0.0350    23.8490    30.6950 o          1 FLU      -0.545100
      9 N1           0.0460    21.7640    31.7230 ns         1 FLU      -0.480100
     10 H1          -0.7210    21.2120    32.0930 hn         1 FLU       0.306500
     11 C8          -2.5270    23.2720    29.5360 c3         1 FLU      -0.086100
     12 C9          -1.5890    22.1470    29.9700 c3         1 FLU      -0.131700
     13 C10         -1.0540    21.4050    28.7460 c3         1 FLU      -0.086100
     14 C11          4.8840    21.9120    33.0040 c3         1 FLU       0.704200
     15 F1           5.5420    23.0970    33.1210 f          1 FLU      -0.219633
     16 F2           5.0810    21.5240    31.7120 f          1 FLU      -0.219633
     17 F3           5.5560    21.0090    33.7640 f          1 FLU      -0.219633
     18 N2           3.9510    22.4590    35.7620 no         1 FLU       0.269200
     19 O2           4.4200    23.5920    35.9340 o          1 FLU      -0.167500
     20 O3           4.1930    21.4630    36.4520 o          1 FLU      -0.167500
     21 H2          -0.3680    22.3540    34.2330 ha         1 FLU       0.151000
     22 H3           1.3180    22.6530    36.0000 ha         1 FLU       0.167000
     23 H4           2.7330    21.6090    31.3500 ha         1 FLU       0.175000
     24 H5          -2.9030    23.8210    30.4070 hc         1 FLU       0.046533
     25 H6          -2.0190    23.9910    28.8850 hc         1 FLU       0.046533
     26 H7          -3.3880    22.8720    28.9910 hc         1 FLU       0.046533
     27 H8          -2.1740    21.4460    30.5780 hc         1 FLU       0.050700
     28 H9          -0.4080    20.5730    29.0480 hc         1 FLU       0.046533
     29 H10         -1.8730    20.9970    28.1450 hc         1 FLU       0.046533
     30 H11         -0.4570    22.0690    28.1110 hc         1 FLU       0.046533
@<TRIPOS>BOND
     1    11    12 1   
     2    12    13 1   
     3    12     7 1   
     4     7     8 2   
     5     7     9 1   
     6     9     1 1   
     7     1     2 ar  
     8     2     3 ar  
     9     3     4 ar  
    10     4    18 1   
    11    18    19 1   
    12    18    20 1   
    13     4     5 ar  
    14     5    14 1   
    15    14    15 1   
    16    14    16 1   
    17    14    17 1   
    18     5     6 ar  
    19     6     1 ar  
    20     9    10 1   
    21     2    21 1   
    22     3    22 1   
    23     6    23 1   
    24    11    24 1   
    25    11    25 1   
    26    11    26 1   
    27    12    27 1   
    28    13    28 1   
    29    13    29 1   
    30    13    30 1   
@<TRIPOS>SUBSTRUCTURE
     1 FLU         1 TEMP              0 ****  ****    0 ROOT
