@<TRIPOS>MOLECULE
FLU
   30    30     1     0     0
SMALL
bcc


@<TRIPOS>ATOM
      1 C1           0.5700    22.4380    33.6980 ca         1 FLU       0.070600
      2 C2          -0.2070    22.1300    34.8210 ca         1 FLU      -0.143000
      3 C3           0.3850    21.9620    36.0740 ca         1 FLU      -0.075000
      4 C4           1.7720    22.1070    36.2030 ca         1 FLU      -0.106200
      5 C5           2.5790    22.4380    35.1060 ca         1 FLU      -0.125300
      6 C6           1.9540    22.5900    33.8500 ca         1 FLU      -0.072000
      7 C7          -0.3440    23.7540    31.7660 c          1 FLU       0.657100
      8 O1           0.0300    24.8740    32.0940 o          1 FLU      -0.547100
      9 N1          -0.1100    22.5840    32.4720 ns         1 FLU      -0.467100
     10 H1          -0.9410    22.0030    32.4460 hn         1 FLU       0.308500
     11 C8          -0.9640    22.0730    30.0000 c3         1 FLU      -0.092100
     12 C9          -1.1460    23.5120    30.4830 c3         1 FLU      -0.138700
     13 C10         -2.6290    23.8130    30.6940 c3         1 FLU      -0.092100
     14 C11          4.0680    22.6330    35.2300 c3         1 FLU       0.704200
     15 F1           4.3970    23.6940    36.0150 f          1 FLU      -0.219633
     16 F2           4.6720    22.8770    34.0330 f          1 FLU      -0.219633
     17 F3           4.7010    21.5480    35.7450 f          1 FLU      -0.219633
     18 N2           2.3470    21.8880    37.5240 no         1 FLU       0.270200
     19 O2           2.4170    22.8680    38.2760 o          1 FLU      -0.168500
     20 O3           2.6890    20.7340    37.8040 o          1 FLU      -0.168500
     21 H2          -1.2880    22.0260    34.7390 ha         1 FLU       0.149000
     22 H3          -0.2320    21.7170    36.9370 ha         1 FLU       0.166000
     23 H4           2.5470    22.8510    32.9730 ha         1 FLU       0.176000
     24 H5          -1.5100    21.3430    30.6060 hc         1 FLU       0.043700
     25 H6          -1.3520    21.9790    28.9790 hc         1 FLU       0.043700
     26 H7           0.0930    21.7850    29.9690 hc         1 FLU       0.043700
     27 H8          -0.7370    24.1860    29.7200 hc         1 FLU       0.090700
     28 H9          -3.0600    23.1680    31.4680 hc         1 FLU       0.043700
     29 H10         -2.7680    24.8500    31.0200 hc         1 FLU       0.043700
     30 H11         -3.1950    23.6680    29.7680 hc         1 FLU       0.043700
@<TRIPOS>BOND
     1    11    12 1   
     2    12    13 1   
     3    12     7 1   
     4     7     8 2   
     5     7     9 1   
     6     9     1 1   
     7     1     2 ar  
     8     2     3 ar  
     9     3     4 ar  
    10     4    18 1   
    11    18    19 1   
    12    18    20 1   
    13     4     5 ar  
    14     5    14 1   
    15    14    15 1   
    16    14    16 1   
    17    14    17 1   
    18     5     6 ar  
    19     6     1 ar  
    20     9    10 1   
    21     2    21 1   
    22     3    22 1   
    23     6    23 1   
    24    11    24 1   
    25    11    25 1   
    26    11    26 1   
    27    12    27 1   
    28    13    28 1   
    29    13    29 1   
    30    13    30 1   
@<TRIPOS>SUBSTRUCTURE
     1 FLU         1 TEMP              0 ****  ****    0 ROOT
