
     RDKit          3D

 51 52  0  0  0  0  0  0  0  0999 V2000
    1.5790   23.0530   34.9130 C   0  0  0  0  0  0  0  0  0  0  0  0
    0.3360   22.6610   34.4300 C   0  0  0  0  0  0  0  0  0  0  0  0
   -0.5110   21.9010   35.2290 C   0  0  0  0  0  0  0  0  0  0  0  0
   -2.0540   21.4130   34.6300 Cl  0  0  0  0  0  0  0  0  0  0  0  0
   -0.1160   21.5350   36.5100 C   0  0  0  0  0  0  0  0  0  0  0  0
    1.1270   21.9280   36.9930 C   0  0  0  0  0  0  0  0  0  0  0  0
    1.9750   22.6880   36.1940 C   0  0  0  0  0  0  0  0  0  0  0  0
    3.2170   23.0800   36.6770 C   0  0  2  0  0  0  0  0  0  0  0  0
    3.2340   24.5000   36.8500 O   0  0  0  0  0  0  0  0  0  0  0  0
    4.1230   24.8390   37.9170 C   0  0  0  0  0  0  0  0  0  0  0  0
    3.8610   26.2150   38.3550 C   0  0  0  0  0  0  0  0  0  0  0  0
    3.6500   27.3120   38.7050 C   0  0  0  0  0  0  0  0  0  0  0  0
    4.3040   22.6750   35.6800 C   0  0  0  0  0  0  0  0  0  0  0  0
    4.9740   21.6570   35.8530 O   0  0  0  0  0  0  0  0  0  0  0  0
    4.4530   23.5020   34.6360 N   0  0  0  0  0  0  0  0  0  0  0  0
    5.4530   23.2590   33.5860 C   0  0  0  0  0  0  0  0  0  0  0  0
    4.9950   23.9170   32.2820 C   0  0  0  0  0  0  0  0  0  0  0  0
    3.8380   23.2920   31.8290 C   0  0  0  0  0  0  0  0  0  0  0  0
    2.6510   24.0130   31.7420 C   0  0  0  0  0  0  0  0  0  0  0  0
    1.5060   23.3730   31.2870 C   0  0  0  0  0  0  0  0  0  0  0  0
    0.3080   24.0080   31.1730 O   0  0  0  0  0  0  0  0  0  0  0  0
    0.4330   25.1020   30.2610 C   0  0  0  0  0  0  0  0  0  0  0  0
    3.8730   21.9480   31.4650 C   0  0  0  0  0  0  0  0  0  0  0  0
    2.7240   21.3110   31.0090 C   0  0  0  0  0  0  0  0  0  0  0  0
    1.5420   22.0350   30.9230 C   0  0  0  0  0  0  0  0  0  0  0  0
    0.3760   21.4850   30.4880 O   0  0  0  0  0  0  0  0  0  0  0  0
    0.0450   20.3600   31.3060 C   0  0  0  0  0  0  0  0  0  0  0  0
   -1.1940   19.7440   30.8130 C   0  0  0  0  0  0  0  0  0  0  0  0
   -2.1810   19.2530   30.4210 C   0  0  0  0  0  0  0  0  0  0  0  0
    2.2500   23.6528   34.2805 H   0  0  0  0  0  0  0  0  0  0  0  0
    0.0226   22.9518   33.4165 H   0  0  0  0  0  0  0  0  0  0  0  0
   -0.7868   20.9343   37.1419 H   0  0  0  0  0  0  0  0  0  0  0  0
    1.4399   21.6380   38.0069 H   0  0  0  0  0  0  0  0  0  0  0  0
    3.4057   22.5898   37.6435 H   0  0  0  0  0  0  0  0  0  0  0  0
    3.9641   24.1497   38.7594 H   0  0  0  0  0  0  0  0  0  0  0  0
    5.1627   24.7577   37.5672 H   0  0  0  0  0  0  0  0  0  0  0  0
    3.4517   28.3428   39.0339 H   0  0  0  0  0  0  0  0  0  0  0  0
    3.8485   24.3331   34.5671 H   0  0  0  0  0  0  0  0  0  0  0  0
    6.4185   23.6872   33.8932 H   0  0  0  0  0  0  0  0  0  0  0  0
    5.5648   22.1758   33.4302 H   0  0  0  0  0  0  0  0  0  0  0  0
    4.7899   24.9827   32.4613 H   0  0  0  0  0  0  0  0  0  0  0  0
    5.7860   23.8184   31.5239 H   0  0  0  0  0  0  0  0  0  0  0  0
    2.6203   25.0743   32.0295 H   0  0  0  0  0  0  0  0  0  0  0  0
    0.5402   26.0398   30.8258 H   0  0  0  0  0  0  0  0  0  0  0  0
    1.3198   24.9520   29.6278 H   0  0  0  0  0  0  0  0  0  0  0  0
   -0.4648   25.1559   29.6278 H   0  0  0  0  0  0  0  0  0  0  0  0
    4.8160   21.3866   31.5387 H   0  0  0  0  0  0  0  0  0  0  0  0
    2.7510   20.2498   30.7208 H   0  0  0  0  0  0  0  0  0  0  0  0
    0.8617   19.6242   31.2655 H   0  0  0  0  0  0  0  0  0  0  0  0
   -0.0985   20.6916   32.3450 H   0  0  0  0  0  0  0  0  0  0  0  0
   -3.1089   18.7914   30.0525 H   0  0  0  0  0  0  0  0  0  0  0  0
  2  1  4  0
  3  2  4  0
  4  3  1  0
  5  3  4  0
  6  5  4  0
  7  6  4  0
  7  1  4  0
  8  7  1  0
  9  8  1  0
 10  9  1  0
 11 10  1  0
 12 11  3  0
 13  8  1  0
 14 13  2  0
 15 13  1  0
 16 15  1  0
 17 16  1  0
 18 17  1  0
 19 18  4  0
 20 19  4  0
 21 20  1  0
 22 21  1  0
 23 18  4  0
 24 23  4  0
 25 24  4  0
 25 20  4  0
 26 25  1  0
 27 26  1  0
 28 27  1  0
 29 28  3  0
  1 30  1  0
  2 31  1  0
  5 32  1  0
  6 33  1  0
  8 34  1  1
 10 35  1  0
 10 36  1  0
 12 37  1  0
 15 38  1  0
 16 39  1  0
 16 40  1  0
 17 41  1  0
 17 42  1  0
 19 43  1  0
 22 44  1  0
 22 45  1  0
 22 46  1  0
 23 47  1  0
 24 48  1  0
 27 49  1  0
 27 50  1  0
 29 51  1  0
M  END
