
     RDKit          3D

 58 63  0  0  0  0  0  0  0  0999 V2000
   19.0290  -12.7390  -18.0790 C   0  0  0  0  0  0  0  0  0  0  0  0
   21.0870  -10.0830  -14.6030 C   0  0  0  0  0  0  0  0  0  0  0  0
   20.3050   -9.5210  -13.5790 C   0  0  0  0  0  0  0  0  0  0  0  0
   20.1240  -10.1850  -12.3560 C   0  0  0  0  0  0  0  0  0  0  0  0
   20.7560  -11.4110  -12.2090 C   0  0  0  0  0  0  0  0  0  0  0  0
   21.7420  -13.0980  -10.8280 C   0  0  0  0  0  0  0  0  0  0  0  0
   22.0540  -13.9260  -12.0720 C   0  0  1  0  0  0  0  0  0  0  0  0
   20.9470  -14.9750  -12.3390 C   0  0  0  0  0  0  0  0  0  0  0  0
   18.5310  -14.6180  -11.9020 C   0  0  0  0  0  0  0  0  0  0  0  0
   17.3770  -13.7090  -12.3320 C   0  0  0  0  0  0  0  0  0  0  0  0
   18.2110  -13.7030  -14.5860 C   0  0  0  0  0  0  0  0  0  0  0  0
   18.4890  -11.8520  -19.0060 C   0  0  0  0  0  0  0  0  0  0  0  0
   19.3550  -14.6080  -14.1580 C   0  0  0  0  0  0  0  0  0  0  0  0
   22.3150  -11.1320  -17.3850 C   0  0  0  0  0  0  0  0  0  0  0  0
   23.0070  -10.0050  -17.8190 C   0  0  0  0  0  0  0  0  0  0  0  0
   22.4540   -9.1320  -18.7510 C   0  0  0  0  0  0  0  0  0  0  0  0
   21.1910   -9.3820  -19.2660 C   0  0  0  0  0  0  0  0  0  0  0  0
   20.4840  -10.5070  -18.8580 C   0  0  0  0  0  0  0  0  0  0  0  0
   21.0340  -11.3920  -17.9210 C   0  0  0  0  0  0  0  0  0  0  0  0
   20.2950  -12.5130  -17.5360 C   0  0  0  0  0  0  0  0  0  0  0  0
   19.2130  -10.7320  -19.3970 C   0  0  0  0  0  0  0  0  0  0  0  0
   22.9810  -11.9280  -16.4390 C   0  0  0  0  0  0  0  0  0  0  0  0
   22.4650  -12.1090  -15.1760 C   0  0  0  0  0  0  0  0  0  0  0  0
   22.7300  -13.1740  -14.3920 C   0  0  0  0  0  0  0  0  0  0  0  0
   23.5640  -14.4160  -14.7070 C   0  0  0  0  0  0  0  0  0  0  0  0
   21.4870  -11.8820  -13.2340 C   0  0  0  0  0  0  0  0  0  0  0  0
   21.6760  -11.2780  -14.4290 C   0  0  0  0  0  0  0  0  0  0  0  0
   22.1210  -13.0380  -13.2150 N   0  0  0  0  0  0  0  0  0  0  0  0
   19.6940  -14.3240  -12.7640 N   0  0  0  0  0  0  0  0  0  0  0  0
   24.1330  -12.2840  -16.7090 O   0  0  0  0  0  0  0  0  0  0  0  0
   20.6440  -12.1660  -11.0450 O   0  0  0  0  0  0  0  0  0  0  0  0
   17.0730  -13.9190  -13.7360 O   0  0  0  0  0  0  0  0  0  0  0  0
   18.4537  -13.6249  -17.7720 H   0  0  0  0  0  0  0  0  0  0  0  0
   21.2174   -9.5417  -15.5517 H   0  0  0  0  0  0  0  0  0  0  0  0
   19.8265   -8.5436  -13.7391 H   0  0  0  0  0  0  0  0  0  0  0  0
   19.5099   -9.7536  -11.5518 H   0  0  0  0  0  0  0  0  0  0  0  0
   21.4706  -13.7796  -10.0084 H   0  0  0  0  0  0  0  0  0  0  0  0
   22.6385  -12.5101  -10.5817 H   0  0  0  0  0  0  0  0  0  0  0  0
   23.0087  -14.4484  -11.9119 H   0  0  0  0  0  0  0  0  0  0  0  0
   21.2836  -15.6595  -13.1316 H   0  0  0  0  0  0  0  0  0  0  0  0
   20.7562  -15.5282  -11.4076 H   0  0  0  0  0  0  0  0  0  0  0  0
   18.7876  -14.4222  -10.8504 H   0  0  0  0  0  0  0  0  0  0  0  0
   18.2408  -15.6744  -12.0016 H   0  0  0  0  0  0  0  0  0  0  0  0
   16.4870  -13.9407  -11.7284 H   0  0  0  0  0  0  0  0  0  0  0  0
   17.6695  -12.6595  -12.1800 H   0  0  0  0  0  0  0  0  0  0  0  0
   18.5288  -12.6526  -14.5103 H   0  0  0  0  0  0  0  0  0  0  0  0
   17.9358  -13.9339  -15.6257 H   0  0  0  0  0  0  0  0  0  0  0  0
   17.4904  -12.0373  -19.4285 H   0  0  0  0  0  0  0  0  0  0  0  0
   19.0488  -15.6600  -14.2557 H   0  0  0  0  0  0  0  0  0  0  0  0
   20.2313  -14.4250  -14.7972 H   0  0  0  0  0  0  0  0  0  0  0  0
   24.0105   -9.8004  -17.4175 H   0  0  0  0  0  0  0  0  0  0  0  0
   23.0174   -8.2458  -19.0784 H   0  0  0  0  0  0  0  0  0  0  0  0
   20.7485   -8.6899  -19.9976 H   0  0  0  0  0  0  0  0  0  0  0  0
   20.7117  -13.2195  -16.8031 H   0  0  0  0  0  0  0  0  0  0  0  0
   18.7888  -10.0263  -20.1264 H   0  0  0  0  0  0  0  0  0  0  0  0
   23.8831  -14.8913  -13.7677 H   0  0  0  0  0  0  0  0  0  0  0  0
   22.9588  -15.1259  -15.2900 H   0  0  0  0  0  0  0  0  0  0  0  0
   24.4501  -14.1245  -15.2900 H   0  0  0  0  0  0  0  0  0  0  0  0
  3  2  4  0
  4  3  4  0
  5  4  4  0
  7  6  1  0
  8  7  1  0
 10  9  1  0
 12  1  4  0
 13 11  1  0
 15 14  4  0
 16 15  4  0
 17 16  4  0
 18 17  4  0
 19 18  4  0
 19 14  4  0
 20 19  4  0
 20  1  4  0
 21 12  4  0
 21 18  4  0
 22 14  1  0
 23 22  1  0
 24 23  4  0
 25 24  1  0
 26  5  4  0
 27 26  4  0
 27  2  4  0
 27 23  4  0
 28 26  4  0
 28 24  4  0
 28  7  1  0
 29 13  1  0
 29  9  1  0
 29  8  1  0
 30 22  2  0
 31  5  1  0
 31  6  1  0
 32 11  1  0
 32 10  1  0
  1 33  1  0
  2 34  1  0
  3 35  1  0
  4 36  1  0
  6 37  1  0
  6 38  1  0
  7 39  1  1
  8 40  1  0
  8 41  1  0
  9 42  1  0
  9 43  1  0
 10 44  1  0
 10 45  1  0
 11 46  1  0
 11 47  1  0
 12 48  1  0
 13 49  1  0
 13 50  1  0
 15 51  1  0
 16 52  1  0
 17 53  1  0
 20 54  1  0
 21 55  1  0
 25 56  1  0
 25 57  1  0
 25 58  1  0
M  END
